***** HSPICE -- D-2010.03 64-BIT (Feb 23 2010) linux ******
 Input File: /export/home/wllv/shzhang/Multi-fidelity/code/NAR_BO/test_bench/pum
 lic:
 lic: FLEXlm: v8.5b
 lic: USER:   wllv                 HOSTNAME: lnode14
 lic: HOSTID: 00e081d2b6ed         PID:      12235
 lic: Using FLEXlm license file:
 lic: /export/home/wllv/mysoft/hspice/license.dat
 lic: Checkout 1 hspice
 lic: License/Maintenance for hspice will expire on 31-dec-2020/2007.9
 lic: NODE LOCKED license on hostid 00e081d2b6ed
 lic:
 init: begin read circuit files,  cpu clock=  1.10E-01
       option gmindc   =    1.000E-14
       option scale    =    0.900
       option scale    =    0.900
 init: end read circuit files,  cpu clock=  1.10E-01 memory=       178 kb
 init: begin check errors,  cpu clock=  1.10E-01
 init: end check errors,  cpu clock=  1.60E-01 memory=       900 kb
 init: begin setup matrix, pivot=     0 cpu clock=  1.60E-01
       establish matrix -- done,  cpu clock=  1.60E-01 memory=       954 kb
       re-order matrix -- done,  cpu clock=  1.60E-01 memory=       965 kb
 init: end setup matrix,  cpu clock=  1.60E-01 memory=      1011 kb
 dcop: begin dcop,  cpu clock=  1.60E-01
 dcop: end dcop,  cpu clock=  2.10E-01 memory=      1011 kb  tot_iter=     266
 sweep: tran tran0    begin, stop_t=  2.00E-07 #sweeps=**** cpu clock=  2.10E-01
 tran: time= 2.0005E-08 tot_iter=     130 conv_iter=      54 cpu clock= 2.40E-01
 tran: time= 4.0005E-08 tot_iter=     284 conv_iter=     114 cpu clock= 2.60E-01
 tran: time= 6.0000E-08 tot_iter=     436 conv_iter=     173 cpu clock= 2.80E-01
 tran: time= 8.0005E-08 tot_iter=     592 conv_iter=     234 cpu clock= 3.10E-01
 tran: time= 1.0001E-07 tot_iter=     746 conv_iter=     294 cpu clock= 3.30E-01
 tran: time= 1.2000E-07 tot_iter=     900 conv_iter=     354 cpu clock= 3.60E-01
 tran: time= 1.4000E-07 tot_iter=    1054 conv_iter=     414 cpu clock= 3.80E-01
 tran: time= 1.6000E-07 tot_iter=    1208 conv_iter=     474 cpu clock= 4.10E-01
 tran: time= 1.8000E-07 tot_iter=    1362 conv_iter=     534 cpu clock= 4.30E-01
 sweep: tran tran0    end,  cpu clock=  4.50E-01 memory=      1014 kb
>info:         ***** hspice job concluded
 lic: Release hspice token(s)
