$DATA1 SOURCE='HSPICE' VERSION='D-2010.03 64-BIT'
.TITLE '* msp generated netlist file'
 up_imin          up_iavg          up_imax          lo_imin           
 lo_iavg          lo_imax          temper           alter#            
  2.724e-05        3.776e-05        4.766e-05        3.229e-05        
  3.753e-05        4.117e-05         25.0000           1.0000         
