 ****** HSPICE -- D-2010.03 64-BIT (Feb 23 2010) linux ******                   
  Copyright (C) 2010 Synopsys, Inc. All Rights Reserved.                        
  Unpublished-rights reserved under US copyright laws.
  This program is protected by law and is subject to the 
  terms and conditions of the license agreement from Synopsys.
  Use of this program is your acceptance to be bound by the 
  license agreement. HSPICE is the trademark of Synopsys, Inc.
  Input File: /export/home/wllv/shzhang/Bagging/test_bench/test3/circuit/tmp/wor
 lic:  
 lic: FLEXlm: v8.5b 
 lic: USER:   wllv                 HOSTNAME: console 
 lic: HOSTID: 3440b5b102f4         PID:      19329 
 lic: Using FLEXlm license file: 
 lic: /export/home/wllv/mysoft/hspice/license.dat 
 lic: Checkout 1 hspice 
 lic: License/Maintenance for hspice will expire on 31-dec-2020/2007.9 
 lic: NODE LOCKED license on hostid 3440b5b102f4 
 lic:   
  **warning** (/export/home/svnhome/process/smic.40//hspice/v1p4/l0040ll_v1p4_1r.mdl:1050) Model nod33ll_ckt device geometries will not be checked against the limits set by lmin, lmax, wmin and wmax. To enable this check, add a period(.) to the model name(i.e. enable model selector).
1****** HSPICE -- D-2010.03 64-BIT (Feb 23 2010) linux ******                   
 ******  
 * msp generated netlist file

  ******  circuit name directory
 circuit number to circuit name directory
   number circuitname                     definition         multiplier
        0 main circuit
        1 xi0.                            pll_chargepump     1.00 
        2 xi0.xi40.                       pll_quench_v33     1.00 
        3 xi0.xnm31.                      nod33ll_ckt        1.00 
        4 xi0.xnm30.                      nod33ll_ckt        1.00 
        5 xi0.xpm29.                      pod33ll_ckt        1.00 
        6 xi0.xpm22.                      pod33ll_ckt        1.00 
        7 xi0.xpm11.                      pod33ll_ckt        2.00 
        8 xi0.xpm12.                      pod33ll_ckt        8.00 
        9 xi0.xpm8.                       pod33ll_ckt        8.00 
       10 xi0.xpm10.                      pod33ll_ckt        2.00 
       11 xi0.xpm3.                       pod33ll_ckt        1.00 
       12 xi0.xpm1.                       pod33ll_ckt        1.00 
       13 xi0.xpm2.                       pod33ll_ckt        1.00 
       14 xi0.xpm4.                       pod33ll_ckt        1.00 
       15 xi0.xnm5.                       nod33ll_ckt        1.00 
       16 xi0.xnm6.                       nod33ll_ckt        1.00 
       17 xi0.xnm7.                       nod33ll_ckt        1.00 
       18 xi0.xnm9.                       nod33ll_ckt        1.00 
       19 xi0.xnm14.                      nod33ll_ckt        2.00 
       20 xi0.xnm18.                      nod33ll_ckt        8.00 
       21 xi0.xnm21.                      nod33ll_ckt        1.00 
       22 xi0.xnm23.                      nod33ll_ckt        2.00 
       23 xi0.xnm15.                      nod33ll_ckt        2.00 
       24 xi0.xnm17.                      nod33ll_ckt        8.00 
       25 xi0.xnm20.                      nod33ll_ckt        1.00 
       26 xi0.xnm24.                      nod33ll_ckt        2.00 
       27 xi0.xnm33.                      nod33ll_ckt        1.00 
       28 xi0.xnm32.                      nod33ll_ckt        1.00 
       29 xi0.xnm27.                      nod33ll_ckt        1.00 
       30 xi0.xnm13.                      nod33ll_ckt        1.00 
       31 xi0.xnm25.                      nod33ll_ckt        2.00 
       32 xi0.xpm19.                      pod33ll_ckt        1.00 
       33 xi0.xnm26.                      nod33ll_ckt        1.00 
       34 xi0.xpm28.                      pod33ll_ckt        1.00 
       35 xi0.xnm34.                      nod33ll_ckt        4.00 
       36 xi0.xi40.xpm11.                 pod33ll_ckt        4.00 
       37 xi0.xi40.xpm10.                 pod33ll_ckt        4.00 
       38 xi0.xi40.xnm1.                  nod33ll_ckt        2.00 
       39 xi0.xi40.xnm0.                  nod33ll_ckt        6.00 
       40 xi0.xi40.xpm12.                 pod33ll_ckt        1.00 
       41 xi0.xi40.xpm7.                  pod33ll_ckt       10.00 
       42 xi0.xi40.xpm8.                  pod33ll_ckt        5.00 
       43 xi0.xi40.xpm9.                  pod33ll_ckt        2.00 
1****** HSPICE -- D-2010.03 64-BIT (Feb 23 2010) linux ******                   
 ******  
 * msp generated netlist file

  ******  mos   model parameters tnom=  25.000 temp=  25.000 *****
 
Model Name: nod33ll_ckt  

 BSIM4 Model (Level 54)

    MOBMOD = 0
    BINUNIT = 2
    PARAMCHK = 1
    CAPMOD = 2
    DIOMOD = 2
    RDSMOD = 1
    TRNQSMOD = 0
    ACNQSMOD = 0
    RBODYMOD = 0
    RGATEMOD = 0
    PERMOD = 1
    GEOMOD = 0
    RGEOMOD = 1
    FNOIMOD = 1
    TNOIMOD = 0
    IGCMOD = 0
    IGBMOD = 0
    STIMOD = 1
    VBFWDMOD = 0
    VERSION =    4.5 
    TOXREF = 5.63e-09 
    TOXE = 5.77e-09 
    TOXP = 5.874e-09 
    TOXM = 5.63e-09 
    DTOX = -1.036e-10 
    EPSROX =    3.9 
    CDSC =  5e-05 
    CDSCB = 2.002e-05 
    CDSCD =      0 
    CIT = 0.0007521 
    NFACTOR =  1.414 
    XJ = 1.42e-07 
    VSAT = 9.4e+04 
    A0 =      1 
    AGS = 0.3474 
    A1 =      0 
    A2 =      1 
    AT = 1.38e+04 
    KETA = -0.003203 
    NSUB =  6e+16 
    NDEP = 1.3e+17 
    NSD =  1e+20 
    NGATE = 2.27e+22 
    GAMMA1 =      0 
    GAMMA2 =      0 
    VBX =      0 
    VBM =     -3 
    XT = 1.55e-07 
    K1 = 0.6381 
    KT1 = -0.173 
    KT1L = 3.417e-09 
    KT2 = -0.03838 
    K2 = 0.00301 
    K3 = -2.907 
    K3B =      0 
    LPE0 = 5.562e-08 
    LPEB =      0 
    DVTP0 =      0 
    DVTP1 =      0 
    W0 = -9.093e-08 
    DVT0 = 0.6583 
    DVT1 = 0.1013 
    DVT2 =      0 
    DVT0W = 0.5231 
    DVT1W = 1.18e+06 
    DVT2W =  1.064 
    DROUT =   0.56 
    DSUB =    0.7 
    VTH0 = 0.6275 
    EU =   1.67 
    UA = -9.715e-10 
    UA1 = 2.558e-09 
    UB = 2.378e-18 
    UB1 = -2.418e-18 
    UC = 1.209e-10 
    UC1 = -1e-12 
    U0 = 0.03266 
    UTE = -0.9763 
    VOFF = -0.1843 
    VOFFL = 9.667e-10 
    MINV = -0.6978 
    FPROUT =      0 
    PDITS =      0 
    PDITSD =      0 
    PDITSL =      0 
    DELTA = 0.003263 
    RDSW =    200 
    RDSWMIN =      0 
    RDWMIN =      0 
    RSWMIN =      0 
    RDW =  162.8 
    RSW =  162.8 
    PRWG =      0 
    PRWB =  0.028 
    PRT =      0 
    ETA0 =  0.118 
    ETAB = -0.1213 
    PCLM =  0.348 
    PDIBLC1 = 0.02463 
    PDIBLC2 = 0.0001766 
    PDIBLCB =  0.189 
    PSCBE1 = 4.24e+08 
    PSCBE2 = 3.491e-08 
    PVAG =      1 
    WR =      1 
    DWG = 8.451e-09 
    DWB = 1.096e-13 
    XW = 9.3e-09 
    XWREF = 9.3e-09 
    XL =  4e-08 
    XLREF =  4e-08 
    B0 = 5.953e-08 
    B1 =      0 
    ALPHA0 = 3.657e-08 
    ALPHA1 =  9.581 
    AGIDL = 9.423e-09 
    BGIDL = 2.636e+09 
    CGIDL =  130.1 
    PHIN =   0.15 
    EGIDL =  0.496 
    AIGC = 0.0136 
    BIGC = 0.00171 
    CIGC =  0.075 
    AIGSD = 0.0136 
    BIGSD = 0.00171 
    CIGSD =  0.075 
    AIGBACC = 0.000949 
    BIGBACC = 0.00171 
    CIGBACC =  0.075 
    AIGBINV = 0.0111 
    BIGBINV = 0.000949 
    CIGBINV =  0.006 
    NIGC =      1 
    NIGBINV =      3 
    NIGBACC =      1 
    NTOX =      1 
    EIGBINV =    1.1 
    PIGCD =      1 
    POXEDGE =      1 
    XRCRG1 =     12 
    TNOIA =    1.5 
    TNOIB =    3.5 
    NTNOI =      1 
    XRCRG2 =      1 
    BETA0 =  22.91 
    IJTHDFWD =    0.1 
    IJTHSFWD =    0.1 
    IJTHDREV =    0.1 
    IJTHSREV =    0.1 
    XJBVD =      1 
    XJBVS =      1 
    BVD =   9.45 
    BVS =   9.45 
    VFB =     -1 
    GBMIN =  1e-12 
    RBDB =     50 
    RBPB =     50 
    RBSB =     50 
    RBPS =     50 
    RBPD =     50 
    CGSL = 3.515e-10 
    CGDL = 3.515e-10 
    CKAPPAS =    0.6 
    CKAPPAD =    0.6 
    CF = 5.607e-11 
    CLC =  1e-07 
    CLE =    0.6 
    DWC = -6.5e-08 
    DLC = 8.665e-08 
    DLCIG =      0 
    DWJ =      0 
    VFBCV =     -1 
    ACDE = 0.2864 
    MOIN =  5.099 
    NOFF =  1.954 
    VOFFCV = -0.1431 
    DMCG = 9.9e-08 
    DMCI = 1.62e-07 
    DMDG =      0 
    DMCGT =      0 
    XGW =      0 
    XGL =      0 
    RSHG =    0.1 
    NGCON =      1 
    TCJ = 0.0008075 
    TPB = 0.001579 
    TCJSW = 0.0003398 
    TPBSW = 0.0006488 
    TCJSWG = 0.0005936 
    TPBSWG = 0.0003669 
    SK0 =      0 
    SK1 =      0 
    SK2 =      0 
    SL =  2e-06 
    SW =  2e-06 
    K =      0 
    LCIT = -5.294e-11 
    LVSAT = -0.008723 
    LKT1 = 1.1e-09 
    LKT2 =  4e-09 
    LK2 = -6.36e-09 
    LVTH0 = 5.753e-09 
    LUA = 5.684e-16 
    LUA1 = 5.971e-16 
    LUB = -1.843e-27 
    LUB1 = -5.981e-25 
    LUC = 1.868e-17 
    LUC1 = -2e-17 
    LU0 = 6.35e-09 
    LUTE = -3.976e-08 
    LDELTA = 1.069e-08 
    LPCLM = 6.797e-08 
    LALPHA1 = 7.643e-07 
    LBETA0 = 2.298e-08 
    LAGIDL = 3.57e-15 
    LCGIDL = 1.53e-05 
    LNOFF = 1.3e-07 
    LVOFFCV = -1.515e-08 
    WVSAT = -0.01913 
    WAGS = 4.368e-09 
    WKT1 = -2e-09 
    WVTH0 = 4.311e-09 
    WUA1 = -1.82e-16 
    WUB = -2.145e-25 
    WUB1 = -2e-26 
    WUC = -2.829e-17 
    WU0 = -3.692e-09 
    WUTE = -3.645e-08 
    WALPHA1 = 3.099e-07 
    WAGIDL = 2.905e-14 
    PCIT = -2.632e-18 
    PVSAT = 3.03e-09 
    PAT = -5.735e-11 
    PAGS = 2.156e-13 
    PKT1 = -5.122e-16 
    PK2 = 2.241e-15 
    PK3 = 2.24e-13 
    PPE0 = 5.024e-21 
    PDVT0 = -1.376e-14 
    PVTH0 = -1.177e-14 
    PUA = 4.702e-23 
    PUA1 = -7.425e-24 
    PUB = -2.178e-31 
    PUB1 = 2.525e-31 
    PUC = -1.091e-23 
    PUC1 =  1e-23 
    PU0 = -2.383e-15 
    PUTE = 2.392e-14 
    PETA0 = -3.61e-15 
    PPCLM = 2.4e-14 
    PBETA0 = -5.44e-14 
    PAGIDL = 1.367e-20 
    TNOM =  298.1 
    CGSO = 1.425e-12 
    CGDO = 1.425e-12 
    CGBO =      0 
    XPART =      1 
    RSH =   13.2 
    JSS = 2.308e-07 
    JSWS = 1.013e-13 
    JSWGS = 5.6e-14 
    PBS = 0.5832 
    MJS = 0.2363 
    PBSWS = 0.3922 
    MJSWS = 0.2203 
    CJS = 0.001388 
    CJSWS = 8.451e-11 
    NJS = 0.9807 
    PBSWGS =  0.976 
    MJSWGS =    0.6 
    CJSWGS = 1.434e-10 
    XTIS =      3 
    JSD = 2.308e-07 
    JSWD = 1.013e-13 
    JSWGD = 5.6e-14 
    PBD = 0.5832 
    MJD = 0.2363 
    PBSWD = 0.3922 
    MJSWD = 0.2203 
    CJD = 0.001388 
    CJSWD = 8.451e-11 
    NJD = 0.9807 
    PBSWGD =  0.976 
    MJSWGD =    0.6 
    CJSWGD = 1.434e-10 
    XTID =      3 
    LMLT =      1 
    WMLT =      1 
    LINT = 3.171e-08 
    LL = 7.773e-15 
    LLC =      0 
    LLN =      1 
    LW = 3.807e-15 
    LWC =      0 
    LWN =      1 
    LWL = 1.323e-22 
    LWLC =      0 
    LMIN = 4.95e-07 
    LMAX = 0.0001 
    WINT = -2.832e-08 
    WL = -1.858e-14 
    WLC =      0 
    WLN =      1 
    WW = -6.716e-15 
    WWC =      0 
    WWN =      1 
    WWL = 2.396e-21 
    WWLC =      0 
    WMIN = 2.88e-07 
    WMAX = 0.0001 
    NOIA = 2.064e+41 
    NOIB = 7.403e+24 
    NOIC = 4.862e+07 
    EM = 3.308e+11 
    EF = 0.9576 
    AF =      1 
    KF =      0 
    TRS =      0 
    TRD =      0 
    TEMPMOD  =      0 
    LAMBDA   =      0 
    VTL      =  2e+05 m/s
    LC       =  5e-09 
    XN       =      3 
    LLAMBDA  =      0 
    LVTL     =      0 
    LXN      =      0 
    WLAMBDA  =      0 
    WVTL     =      0 
    WXN      =      0 
    PLAMBDA  =      0 
    PVTL     =      0 
    PXN      =      0 
    RNOIA    =  0.577 
    RNOIB    = 0.5164 
    SAREF(SA0) = 2.61e-07 m
    SBREF(SB0) = 2.61e-07 m
    WLOD     =      0 m
    KU0      = -5.71e-08 1/m
    KVSAT    =    0.4 
    KVTH0    = 2.48e-09 m
    TKU0     =      0 
    LLODKU0  =      1 
    WLODKU0  =      1 
    LLODVTH  =      1 
    WLODVTH  =      1 
    LKU0     = 1.325e-06 
    WKU0     =  1e-08 
    PKU0     = -5.7e-14 
    LKVTH0   = -1.301e-07 
    WKVTH0   = -1.5e-07 
    PKVTH0   = 6.3e-14 
    STK2     =      0 
    LODK2    =      1 
    STETA0   = -3.339e-09 
    LODETA0  =      1 
    LXRCRG1  =      0 
    WXRCRG1  =      0 
    PXRCRG1  =      0 
    LXRCRG2  =      0 
    WXRCRG2  =      0 
    PXRCRG2  =      0 
 

    *** UCB's BSIM4.4.0 new diode model is activated. ***
    *** UCB's Diode Model Parameters ***

    JTSS         =      0 
    JTSSWS       =      0 
    JTSSWGS      = 1.2e-18 
    JTSD         =      0 
    JTSSWD       =      0 
    JTSSWGD      = 1.2e-18 
    NJTS         =     20 
    NJTSSW       =     20 
    NJTSSWG      =     20 
    XTSS         =   0.02 
    XTSSWS       =   0.02 
    XTSSWGS      =   0.02 
    XTSD         =   0.02 
    XTSSWD       =   0.02 
    XTSSWGD      =   0.02 
    TNJTS        =      0 
    TNJTSSW      =      0 
    TNJTSSWG     =      0 
    VFBSDOFF     =      0 
    LVFBSDOFF    =      0 
    WVFBSDOFF    =      0 
    PVFBSDOFF    =      0 
    LINTNOI      = -3.905e-08 
    VTSS         =     10 
    VTSD         =     10 
    VTSSWS       =     10 
    VTSSWD       =     10 
    VTSSWGS      =     10 
    VTSSWGD      =     10 
    TTDIOMOD     =      1 
 

    *** UCB's BSIM4.5.0 new model is activated. ***
    UD         =  1e+14 
    UD1        =      0 
    UP         =      0 
    LP         =  1e-08 
    TVOFF      =  0.003 
    TVFBSDOFF  =      0 
    RBPS0      =     50 
    RBPSL      =      0 
    RBPSW      =      0 
    RBPSNF     =      0 
    RBPD0      =     50 
    RBPDL      =      0 
    RBPDW      =      0 
    RBPDNF     =      0 
    RBPBX0     =    100 
    RBPBXL     =      0 
    RBPBXW     =      0 
    RBPBXNF    =      0 
    RBPBY0     =    100 
    RBPBYL     =      0 
    RBPBYW     =      0 
    RBPBYNF    =      0 
    RBSBX0     =    100 
    RBSBY0     =    100 
    RBDBX0     =    100 
    RBDBY0     =    100 
    RBSDBXL    =      0 
    RBSDBXW    =      0 
    RBSDBXNF   =      0 
    RBSDBYL    =      0 
    RBSDBYW    =      0 
    RBSDBYNF   =      0 
    LUD        =      0 
    LUD1       =      0 
    LUP        =      0 
    LLP        =      0 
    LTVOFF     = -4.4e-11 
    LTVFBSDOFF =      0 
    WUD        =      0 
    WUD1       =      0 
    WUP        =      0 
    WLP        =      0 
    WTVOFF     =      0 
    WTVFBSDOFF =      0 
    PUD        =      0 
    PUD1       =      0 
    PUP        =      0 
    PLP        =      0 
    PTVOFF     =      0 
    PTVFBSDOFF =      0 
    WEB        =   -460 
    WEC        =   -300 
    KVTH0WE    = 0.01789 
    K2WE       =      0 
    KU0WE      = -0.01846 
    SCREF      =  1e-06 
    WPEMOD     =      1 
    LKVTH0WE   = 1.579e-09 
    LK2WE      =      0 
    LKU0WE     =      0 
    WKVTH0WE   =  1e-09 
    WK2WE      =      0 
    WKU0WE     = 4.324e-09 
    PKVTH0WE   = -4.409e-16 
    PK2WE      =      0 
    PKU0WE     = -6.528e-16 
 

 
Model Name: pod33ll_ckt  

 BSIM4 Model (Level 54)

    MOBMOD = 0
    BINUNIT = 2
    PARAMCHK = 1
    CAPMOD = 2
    DIOMOD = 2
    RDSMOD = 1
    TRNQSMOD = 0
    ACNQSMOD = 0
    RBODYMOD = 0
    RGATEMOD = 0
    PERMOD = 1
    GEOMOD = 0
    RGEOMOD = 1
    FNOIMOD = 1
    TNOIMOD = 0
    IGCMOD = 0
    IGBMOD = 0
    STIMOD = 1
    VBFWDMOD = 0
    VERSION =    4.5 
    TOXREF = 6.02e-09 
    TOXE = 6.119e-09 
    TOXP = 5.979e-09 
    TOXM = 6.119e-09 
    DTOX = 1.4e-10 
    EPSROX =    3.9 
    CDSC =      0 
    CDSCB =      0 
    CDSCD =      0 
    CIT = 0.00063 
    NFACTOR =   1.05 
    XJ = 1.37e-07 
    VSAT = 8.5e+04 
    A0 =  1.495 
    AGS =  0.275 
    A1 =      0 
    A2 =      1 
    AT =  6e+04 
    KETA = -0.002248 
    NSUB =  6e+16 
    NDEP =  1e+17 
    NSD =  1e+20 
    NGATE =  1e+21 
    GAMMA1 =      0 
    GAMMA2 =      0 
    VBX =      0 
    VBM =     -3 
    XT = 1.55e-07 
    K1 =    0.6 
    KT1 = -0.1793 
    KT1L =  2e-08 
    KT2 = -0.02903 
    K2 =  -0.05 
    K3 =      0 
    K3B =    0.7 
    LPE0 =  7e-08 
    LPEB =      0 
    DVTP0 = -1e-07 
    DVTP1 =      0 
    W0 =      0 
    DVT0 =      7 
    DVT1 =   0.36 
    DVT2 =   0.01 
    DVT0W =      0 
    DVT1W =      0 
    DVT2W =      0 
    DROUT =   0.56 
    DSUB =   0.56 
    VTH0 = -0.642 
    EU =   1.67 
    UA = 2.579e-10 
    UA1 = 1.768e-09 
    UB = 1.231e-18 
    UB1 = -3.029e-18 
    UC = -2e-11 
    UC1 = 4.849e-12 
    U0 = 0.01046 
    UTE =     -1 
    VOFF = -0.132 
    VOFFL = -1.4e-08 
    MINV =  -0.08 
    FPROUT =      0 
    PDITS =      0 
    PDITSD =      0 
    PDITSL =      0 
    DELTA =  0.004 
    RDSW =    477 
    RDSWMIN =      0 
    RDWMIN =      0 
    RSWMIN =      0 
    RDW =    270 
    RSW =    270 
    PRWG =      0 
    PRWB =      0 
    PRT =      0 
    ETA0 =   0.08 
    ETAB = -0.152 
    PCLM =  0.362 
    PDIBLC1 =      0 
    PDIBLC2 = 3.06e-05 
    PDIBLCB =      0 
    PSCBE1 = 4.24e+09 
    PSCBE2 =  1e-08 
    PVAG =      0 
    WR =      1 
    DWG =      0 
    DWB =      0 
    XW = 1.23e-08 
    XWREF = 1.23e-08 
    XL = 1.36e-08 
    XLREF = 1.36e-08 
    B0 =      0 
    B1 =      0 
    ALPHA0 = -5.285e-06 
    ALPHA1 =   15.9 
    AGIDL =  5e-10 
    BGIDL =  2e+09 
    CGIDL =    0.5 
    PHIN = 0.04597 
    EGIDL =   0.37 
    AIGC = 0.0098 
    BIGC = 0.000759 
    CIGC =   0.03 
    AIGSD = 0.0098 
    BIGSD = 0.000759 
    CIGSD =   0.03 
    AIGBACC = 0.000949 
    BIGBACC = 0.00171 
    CIGBACC =  0.075 
    AIGBINV = 0.0111 
    BIGBINV = 0.000949 
    CIGBINV =  0.006 
    NIGC =      1 
    NIGBINV =      3 
    NIGBACC =      1 
    NTOX =      1 
    EIGBINV =    1.1 
    PIGCD =      1 
    POXEDGE =      1 
    XRCRG1 =     12 
    TNOIA =    1.5 
    TNOIB =    3.5 
    NTNOI =      1 
    XRCRG2 =      1 
    BETA0 =   33.6 
    IJTHDFWD =    0.1 
    IJTHSFWD =    0.1 
    IJTHDREV =    0.1 
    IJTHSREV =    0.1 
    XJBVD =      1 
    XJBVS =      1 
    BVD =   8.55 
    BVS =   8.55 
    VFB =     -1 
    GBMIN =  1e-12 
    RBDB =     50 
    RBPB =     50 
    RBSB =     50 
    RBPS =     50 
    RBPD =     50 
    CGSL = 3.23e-10 
    CGDL = 3.23e-10 
    CKAPPAS =    0.6 
    CKAPPAD =    0.6 
    CF = 5.478e-11 
    CLC =  1e-07 
    CLE =    0.6 
    DWC = -6.5e-08 
    DLC = 7.306e-08 
    DLCIG =  5e-09 
    DWJ =      0 
    VFBCV =     -1 
    ACDE = 0.5037 
    MOIN =      8 
    NOFF =    1.4 
    VOFFCV =  -0.02 
    DMCG = 9.9e-08 
    DMCI = 1.62e-07 
    DMDG =      0 
    DMCGT =      0 
    XGW =      0 
    XGL =      0 
    RSHG =    0.1 
    NGCON =      1 
    TCJ = 0.0008479 
    TPB = 0.001659 
    TCJSW = 0.000503 
    TPBSW = 0.002829 
    TCJSWG = 0.0002 
    TPBSWG = 0.0003037 
    SK0 =      0 
    SK1 =      0 
    SK2 =      0 
    SL =  2e-06 
    SW =  2e-06 
    K =      0 
    LCIT = -2e-10 
    LVSAT = 0.005595 
    LAT =  -0.07 
    LA0 = -9e-07 
    LAGS = 2.5e-07 
    LKETA = -3.24e-09 
    LKT2 = 1.227e-09 
    LVTH0 = -1.31e-08 
    LUA = 1.616e-16 
    LUA1 = 3.45e-17 
    LUB = -1e-25 
    LUB1 =  1e-25 
    LUC = 4.705e-18 
    LU0 = 1.215e-09 
    LDELTA = 3.23e-09 
    LETA0 = 4.292e-08 
    LETAB = 1.7e-08 
    LPCLM = 1.3e-07 
    LPDIBLC2 =  6e-10 
    LALPHA0 = 8.338e-13 
    LBETA0 = -1.837e-06 
    LAGIDL = -1.4e-16 
    LNOFF =  6e-07 
    LVOFFCV = -4e-08 
    WAT =  0.023 
    WA0 =  5e-09 
    WKETA = 3.031e-09 
    WKT1 = 1.029e-08 
    WVTH0 =  2e-09 
    WUA = -6.12e-17 
    WUB = 1.996e-26 
    WUB1 = 1.94e-25 
    WU0 =  2e-10 
    WPCLM = -1e-08 
    WAGIDL =  6e-16 
    PVSAT = -2.029e-09 
    PAT =  5e-09 
    PA0 = 9.04e-14 
    PKT1 =  8e-15 
    PK2 = -1e-16 
    PDVT1 = 5.016e-15 
    PVTH0 = -1e-15 
    PUA = 4.596e-23 
    PUA1 = 3.438e-24 
    PUB = -3.305e-32 
    PUB1 =  8e-33 
    PUC = -1.25e-24 
    PUC1 = 2.2e-24 
    PU0 = -2e-16 
    PVOFF = -2.128e-15 
    PETA0 = 1.08e-14 
    PAGIDL = -4e-22 
    TNOM =  298.1 
    CGSO = 9.5e-12 
    CGDO = 9.5e-12 
    CGBO =      0 
    XPART =      1 
    RSH =     14 
    JSS = 1.593e-07 
    JSWS = 1.013e-13 
    JSWGS = 1.53e-12 
    PBS =  0.729 
    MJS = 0.3168 
    PBSWS =   1.03 
    MJSWS = 0.1784 
    CJS = 0.001294 
    CJSWS = 6.083e-11 
    NJS = 0.9839 
    PBSWGS = 0.8317 
    MJSWGS =  0.465 
    CJSWGS = 1.698e-10 
    XTIS =      3 
    JSD = 1.593e-07 
    JSWD = 1.013e-13 
    JSWGD = 1.53e-12 
    PBD =  0.729 
    MJD = 0.3168 
    PBSWD =   1.03 
    MJSWD = 0.1784 
    CJD = 0.001294 
    CJSWD = 6.083e-11 
    NJD = 0.9839 
    PBSWGD = 0.8317 
    MJSWGD =  0.465 
    CJSWGD = 1.698e-10 
    XTID =      3 
    LMLT =      1 
    WMLT =      1 
    LINT =  4e-09 
    LL = -5e-15 
    LLC =      0 
    LLN =    0.9 
    LW =      0 
    LWC =      0 
    LWN =      1 
    LWL =      0 
    LWLC =      0 
    LMIN = 3.96e-07 
    LMAX = 0.0001 
    WINT = -2e-08 
    WL = -1.1e-14 
    WLC =      0 
    WLN =   0.98 
    WW =  9e-15 
    WWC =      0 
    WWN =   0.96 
    WWL =      0 
    WWLC =      0 
    WMIN = 2.88e-07 
    WMAX = 0.0001 
    NOIA = 5.223e+41 
    NOIB = 1.399e+26 
    NOIC =  6e+09 
    EM =  2e+09 
    EF =   1.21 
    AF =      1 
    KF =      0 
    TRS =      0 
    TRD =      0 
    TEMPMOD  =      0 
    LAMBDA   =      0 
    VTL      =  2e+05 m/s
    LC       =  5e-09 
    XN       =      3 
    LLAMBDA  =      0 
    LVTL     =      0 
    LXN      =      0 
    WLAMBDA  =      0 
    WVTL     =      0 
    WXN      =      0 
    PLAMBDA  =      0 
    PVTL     =      0 
    PXN      =      0 
    RNOIA    =  0.577 
    RNOIB    = 0.5164 
    SAREF(SA0) = 2.61e-07 m
    SBREF(SB0) = 2.61e-07 m
    WLOD     =      0 m
    KU0      =  3e-09 1/m
    KVSAT    =      1 
    KVTH0    =  4e-09 m
    TKU0     =      0 
    LLODKU0  =      1 
    WLODKU0  =      1 
    LLODVTH  =      1 
    WLODVTH  =      1 
    LKU0     =  2e-06 
    WKU0     =      0 
    PKU0     =      0 
    LKVTH0   =  7e-07 
    WKVTH0   =  3e-07 
    PKVTH0   =  2e-13 
    STK2     =      0 
    LODK2    =      1 
    STETA0   =      0 
    LODETA0  =      1 
    LXRCRG1  =      0 
    WXRCRG1  =      0 
    PXRCRG1  =      0 
    LXRCRG2  =      0 
    WXRCRG2  =      0 
    PXRCRG2  =      0 
 

    *** UCB's BSIM4.4.0 new diode model is activated. ***
    *** UCB's Diode Model Parameters ***

    JTSS         =      0 
    JTSSWS       =      0 
    JTSSWGS      =  7e-10 
    JTSD         =      0 
    JTSSWD       =      0 
    JTSSWGD      =  7e-10 
    NJTS         =     20 
    NJTSSW       =     20 
    NJTSSWG      =     20 
    XTSS         =   0.02 
    XTSSWS       =   0.02 
    XTSSWGS      =   0.02 
    XTSD         =   0.02 
    XTSSWD       =   0.02 
    XTSSWGD      =   0.02 
    TNJTS        =      0 
    TNJTSSW      =      0 
    TNJTSSWG     =      0 
    VFBSDOFF     =      0 
    LVFBSDOFF    =      0 
    WVFBSDOFF    =      0 
    PVFBSDOFF    =      0 
    LINTNOI      = -1.8e-08 
    VTSS         =     10 
    VTSD         =     10 
    VTSSWS       =     10 
    VTSSWD       =     10 
    VTSSWGS      =     10 
    VTSSWGD      =     10 
    TTDIOMOD     =      1 
 

    *** UCB's BSIM4.5.0 new model is activated. ***
    UD         =  1e+14 
    UD1        =      0 
    UP         =      0 
    LP         =  1e-08 
    TVOFF      =  0.005 
    TVFBSDOFF  =      0 
    RBPS0      =     50 
    RBPSL      =      0 
    RBPSW      =      0 
    RBPSNF     =      0 
    RBPD0      =     50 
    RBPDL      =      0 
    RBPDW      =      0 
    RBPDNF     =      0 
    RBPBX0     =    100 
    RBPBXL     =      0 
    RBPBXW     =      0 
    RBPBXNF    =      0 
    RBPBY0     =    100 
    RBPBYL     =      0 
    RBPBYW     =      0 
    RBPBYNF    =      0 
    RBSBX0     =    100 
    RBSBY0     =    100 
    RBDBX0     =    100 
    RBDBY0     =    100 
    RBSDBXL    =      0 
    RBSDBXW    =      0 
    RBSDBXNF   =      0 
    RBSDBYL    =      0 
    RBSDBYW    =      0 
    RBSDBYNF   =      0 
    LUD        =      0 
    LUD1       =      0 
    LUP        =      0 
    LLP        =      0 
    LTVOFF     =      0 
    LTVFBSDOFF =      0 
    WUD        =      0 
    WUD1       =      0 
    WUP        =      0 
    WLP        =      0 
    WTVOFF     = 6.4e-10 
    WTVFBSDOFF =      0 
    PUD        =      0 
    PUD1       =      0 
    PUP        =      0 
    PLP        =      0 
    PTVOFF     =      0 
    PTVFBSDOFF =      0 
    WEB        =     10 
    WEC        =      0 
    KVTH0WE    = -0.008 
    K2WE       =      0 
    KU0WE      = -0.004 
    SCREF      =  1e-06 
    WPEMOD     =      1 
    LKVTH0WE   = -6e-10 
    LK2WE      =      0 
    LKU0WE     =      0 
    WKVTH0WE   =  3e-10 
    WK2WE      =      0 
    WKU0WE     = -1e-10 
    PKVTH0WE   =  1e-16 
    PK2WE      =      0 
    PKU0WE     = -8e-17 
 

 
Model Name: pod33ll_ckt  

 BSIM4 Model (Level 54)

    MOBMOD = 0
    BINUNIT = 2
    PARAMCHK = 1
    CAPMOD = 2
    DIOMOD = 2
    RDSMOD = 1
    TRNQSMOD = 0
    ACNQSMOD = 0
    RBODYMOD = 0
    RGATEMOD = 0
    PERMOD = 1
    GEOMOD = 0
    RGEOMOD = 1
    FNOIMOD = 1
    TNOIMOD = 0
    IGCMOD = 0
    IGBMOD = 0
    STIMOD = 1
    VBFWDMOD = 0
    VERSION =    4.5 
    TOXREF = 6.02e-09 
    TOXE = 6.119e-09 
    TOXP = 5.979e-09 
    TOXM = 6.119e-09 
    DTOX = 1.4e-10 
    EPSROX =    3.9 
    CDSC =      0 
    CDSCB =      0 
    CDSCD =      0 
    CIT = 0.00063 
    NFACTOR =   1.05 
    XJ = 1.37e-07 
    VSAT = 8.5e+04 
    A0 =  1.495 
    AGS =  0.275 
    A1 =      0 
    A2 =      1 
    AT =  6e+04 
    KETA = -0.002248 
    NSUB =  6e+16 
    NDEP =  1e+17 
    NSD =  1e+20 
    NGATE =  1e+21 
    GAMMA1 =      0 
    GAMMA2 =      0 
    VBX =      0 
    VBM =     -3 
    XT = 1.55e-07 
    K1 =    0.6 
    KT1 = -0.1793 
    KT1L =  2e-08 
    KT2 = -0.02903 
    K2 =  -0.05 
    K3 =      0 
    K3B =    0.7 
    LPE0 =  7e-08 
    LPEB =      0 
    DVTP0 = -1e-07 
    DVTP1 =      0 
    W0 =      0 
    DVT0 =      7 
    DVT1 =   0.36 
    DVT2 =   0.01 
    DVT0W =      0 
    DVT1W =      0 
    DVT2W =      0 
    DROUT =   0.56 
    DSUB =   0.56 
    VTH0 = -0.642 
    EU =   1.67 
    UA = 2.579e-10 
    UA1 = 1.768e-09 
    UB = 1.231e-18 
    UB1 = -3.029e-18 
    UC = -2e-11 
    UC1 = 4.849e-12 
    U0 = 0.01046 
    UTE =     -1 
    VOFF = -0.132 
    VOFFL = -1.4e-08 
    MINV =  -0.08 
    FPROUT =      0 
    PDITS =      0 
    PDITSD =      0 
    PDITSL =      0 
    DELTA =  0.004 
    RDSW =    477 
    RDSWMIN =      0 
    RDWMIN =      0 
    RSWMIN =      0 
    RDW =    270 
    RSW =    270 
    PRWG =      0 
    PRWB =      0 
    PRT =      0 
    ETA0 =   0.08 
    ETAB = -0.152 
    PCLM =  0.362 
    PDIBLC1 =      0 
    PDIBLC2 = 3.06e-05 
    PDIBLCB =      0 
    PSCBE1 = 4.24e+09 
    PSCBE2 =  1e-08 
    PVAG =      0 
    WR =      1 
    DWG =      0 
    DWB =      0 
    XW = 1.23e-08 
    XWREF = 1.23e-08 
    XL = 1.36e-08 
    XLREF = 1.36e-08 
    B0 =      0 
    B1 =      0 
    ALPHA0 = -5.285e-06 
    ALPHA1 =   15.9 
    AGIDL =  5e-10 
    BGIDL =  2e+09 
    CGIDL =    0.5 
    PHIN = 0.04597 
    EGIDL =   0.37 
    AIGC = 0.0098 
    BIGC = 0.000759 
    CIGC =   0.03 
    AIGSD = 0.0098 
    BIGSD = 0.000759 
    CIGSD =   0.03 
    AIGBACC = 0.000949 
    BIGBACC = 0.00171 
    CIGBACC =  0.075 
    AIGBINV = 0.0111 
    BIGBINV = 0.000949 
    CIGBINV =  0.006 
    NIGC =      1 
    NIGBINV =      3 
    NIGBACC =      1 
    NTOX =      1 
    EIGBINV =    1.1 
    PIGCD =      1 
    POXEDGE =      1 
    XRCRG1 =     12 
    TNOIA =    1.5 
    TNOIB =    3.5 
    NTNOI =      1 
    XRCRG2 =      1 
    BETA0 =   33.6 
    IJTHDFWD =    0.1 
    IJTHSFWD =    0.1 
    IJTHDREV =    0.1 
    IJTHSREV =    0.1 
    XJBVD =      1 
    XJBVS =      1 
    BVD =   8.55 
    BVS =   8.55 
    VFB =     -1 
    GBMIN =  1e-12 
    RBDB =     50 
    RBPB =     50 
    RBSB =     50 
    RBPS =     50 
    RBPD =     50 
    CGSL = 3.23e-10 
    CGDL = 3.23e-10 
    CKAPPAS =    0.6 
    CKAPPAD =    0.6 
    CF = 5.478e-11 
    CLC =  1e-07 
    CLE =    0.6 
    DWC = -6.5e-08 
    DLC = 7.306e-08 
    DLCIG =  5e-09 
    DWJ =      0 
    VFBCV =     -1 
    ACDE = 0.5037 
    MOIN =      8 
    NOFF =    1.4 
    VOFFCV =  -0.02 
    DMCG = 9.9e-08 
    DMCI = 1.62e-07 
    DMDG =      0 
    DMCGT =      0 
    XGW =      0 
    XGL =      0 
    RSHG =    0.1 
    NGCON =      1 
    TCJ = 0.0008479 
    TPB = 0.001659 
    TCJSW = 0.000503 
    TPBSW = 0.002829 
    TCJSWG = 0.0002 
    TPBSWG = 0.0003037 
    SK0 =      0 
    SK1 =      0 
    SK2 =      0 
    SL =  2e-06 
    SW =  2e-06 
    K =      0 
    LCIT = -2e-10 
    LVSAT = 0.005595 
    LAT =  -0.07 
    LA0 = -9e-07 
    LAGS = 2.5e-07 
    LKETA = -3.24e-09 
    LKT2 = 1.227e-09 
    LVTH0 = -1.31e-08 
    LUA = 1.616e-16 
    LUA1 = 3.45e-17 
    LUB = -1e-25 
    LUB1 =  1e-25 
    LUC = 4.705e-18 
    LU0 = 1.215e-09 
    LDELTA = 3.23e-09 
    LETA0 = 4.292e-08 
    LETAB = 1.7e-08 
    LPCLM = 1.3e-07 
    LPDIBLC2 =  6e-10 
    LALPHA0 = 8.338e-13 
    LBETA0 = -1.837e-06 
    LAGIDL = -1.4e-16 
    LNOFF =  6e-07 
    LVOFFCV = -4e-08 
    WAT =  0.023 
    WA0 =  5e-09 
    WKETA = 3.031e-09 
    WKT1 = 1.029e-08 
    WVTH0 =  2e-09 
    WUA = -6.12e-17 
    WUB = 1.996e-26 
    WUB1 = 1.94e-25 
    WU0 =  2e-10 
    WPCLM = -1e-08 
    WAGIDL =  6e-16 
    PVSAT = -2.029e-09 
    PAT =  5e-09 
    PA0 = 9.04e-14 
    PKT1 =  8e-15 
    PK2 = -1e-16 
    PDVT1 = 5.016e-15 
    PVTH0 = -1e-15 
    PUA = 4.596e-23 
    PUA1 = 3.438e-24 
    PUB = -3.305e-32 
    PUB1 =  8e-33 
    PUC = -1.25e-24 
    PUC1 = 2.2e-24 
    PU0 = -2e-16 
    PVOFF = -2.128e-15 
    PETA0 = 1.08e-14 
    PAGIDL = -4e-22 
    TNOM =  298.1 
    CGSO = 9.5e-12 
    CGDO = 9.5e-12 
    CGBO =      0 
    XPART =      1 
    RSH =     14 
    JSS = 1.593e-07 
    JSWS = 1.013e-13 
    JSWGS = 1.53e-12 
    PBS =  0.729 
    MJS = 0.3168 
    PBSWS =   1.03 
    MJSWS = 0.1784 
    CJS = 0.001294 
    CJSWS = 6.083e-11 
    NJS = 0.9839 
    PBSWGS = 0.8317 
    MJSWGS =  0.465 
    CJSWGS = 1.698e-10 
    XTIS =      3 
    JSD = 1.593e-07 
    JSWD = 1.013e-13 
    JSWGD = 1.53e-12 
    PBD =  0.729 
    MJD = 0.3168 
    PBSWD =   1.03 
    MJSWD = 0.1784 
    CJD = 0.001294 
    CJSWD = 6.083e-11 
    NJD = 0.9839 
    PBSWGD = 0.8317 
    MJSWGD =  0.465 
    CJSWGD = 1.698e-10 
    XTID =      3 
    LMLT =      1 
    WMLT =      1 
    LINT =  4e-09 
    LL = -5e-15 
    LLC =      0 
    LLN =    0.9 
    LW =      0 
    LWC =      0 
    LWN =      1 
    LWL =      0 
    LWLC =      0 
    LMIN = 3.96e-07 
    LMAX = 0.0001 
    WINT = -2e-08 
    WL = -1.1e-14 
    WLC =      0 
    WLN =   0.98 
    WW =  9e-15 
    WWC =      0 
    WWN =   0.96 
    WWL =      0 
    WWLC =      0 
    WMIN = 2.88e-07 
    WMAX = 0.0001 
    NOIA = 5.223e+41 
    NOIB = 1.399e+26 
    NOIC =  6e+09 
    EM =  2e+09 
    EF =   1.21 
    AF =      1 
    KF =      0 
    TRS =      0 
    TRD =      0 
    TEMPMOD  =      0 
    LAMBDA   =      0 
    VTL      =  2e+05 m/s
    LC       =  5e-09 
    XN       =      3 
    LLAMBDA  =      0 
    LVTL     =      0 
    LXN      =      0 
    WLAMBDA  =      0 
    WVTL     =      0 
    WXN      =      0 
    PLAMBDA  =      0 
    PVTL     =      0 
    PXN      =      0 
    RNOIA    =  0.577 
    RNOIB    = 0.5164 
    SAREF(SA0) = 2.61e-07 m
    SBREF(SB0) = 2.61e-07 m
    WLOD     =      0 m
    KU0      =  3e-09 1/m
    KVSAT    =      1 
    KVTH0    =  4e-09 m
    TKU0     =      0 
    LLODKU0  =      1 
    WLODKU0  =      1 
    LLODVTH  =      1 
    WLODVTH  =      1 
    LKU0     =  2e-06 
    WKU0     =      0 
    PKU0     =      0 
    LKVTH0   =  7e-07 
    WKVTH0   =  3e-07 
    PKVTH0   =  2e-13 
    STK2     =      0 
    LODK2    =      1 
    STETA0   =      0 
    LODETA0  =      1 
    LXRCRG1  =      0 
    WXRCRG1  =      0 
    PXRCRG1  =      0 
    LXRCRG2  =      0 
    WXRCRG2  =      0 
    PXRCRG2  =      0 
 

    *** UCB's BSIM4.4.0 new diode model is activated. ***
    *** UCB's Diode Model Parameters ***

    JTSS         =      0 
    JTSSWS       =      0 
    JTSSWGS      =  7e-10 
    JTSD         =      0 
    JTSSWD       =      0 
    JTSSWGD      =  7e-10 
    NJTS         =     20 
    NJTSSW       =     20 
    NJTSSWG      =     20 
    XTSS         =   0.02 
    XTSSWS       =   0.02 
    XTSSWGS      =   0.02 
    XTSD         =   0.02 
    XTSSWD       =   0.02 
    XTSSWGD      =   0.02 
    TNJTS        =      0 
    TNJTSSW      =      0 
    TNJTSSWG     =      0 
    VFBSDOFF     =      0 
    LVFBSDOFF    =      0 
    WVFBSDOFF    =      0 
    PVFBSDOFF    =      0 
    LINTNOI      = -1.8e-08 
    VTSS         =     10 
    VTSD         =     10 
    VTSSWS       =     10 
    VTSSWD       =     10 
    VTSSWGS      =     10 
    VTSSWGD      =     10 
    TTDIOMOD     =      1 
 

    *** UCB's BSIM4.5.0 new model is activated. ***
    UD         =  1e+14 
    UD1        =      0 
    UP         =      0 
    LP         =  1e-08 
    TVOFF      =  0.005 
    TVFBSDOFF  =      0 
    RBPS0      =     50 
    RBPSL      =      0 
    RBPSW      =      0 
    RBPSNF     =      0 
    RBPD0      =     50 
    RBPDL      =      0 
    RBPDW      =      0 
    RBPDNF     =      0 
    RBPBX0     =    100 
    RBPBXL     =      0 
    RBPBXW     =      0 
    RBPBXNF    =      0 
    RBPBY0     =    100 
    RBPBYL     =      0 
    RBPBYW     =      0 
    RBPBYNF    =      0 
    RBSBX0     =    100 
    RBSBY0     =    100 
    RBDBX0     =    100 
    RBDBY0     =    100 
    RBSDBXL    =      0 
    RBSDBXW    =      0 
    RBSDBXNF   =      0 
    RBSDBYL    =      0 
    RBSDBYW    =      0 
    RBSDBYNF   =      0 
    LUD        =      0 
    LUD1       =      0 
    LUP        =      0 
    LLP        =      0 
    LTVOFF     =      0 
    LTVFBSDOFF =      0 
    WUD        =      0 
    WUD1       =      0 
    WUP        =      0 
    WLP        =      0 
    WTVOFF     = 6.4e-10 
    WTVFBSDOFF =      0 
    PUD        =      0 
    PUD1       =      0 
    PUP        =      0 
    PLP        =      0 
    PTVOFF     =      0 
    PTVFBSDOFF =      0 
    WEB        =     10 
    WEC        =      0 
    KVTH0WE    = -0.008 
    K2WE       =      0 
    KU0WE      = -0.004 
    SCREF      =  1e-06 
    WPEMOD     =      1 
    LKVTH0WE   = -6e-10 
    LK2WE      =      0 
    LKU0WE     =      0 
    WKVTH0WE   =  3e-10 
    WK2WE      =      0 
    WKU0WE     = -1e-10 
    PKVTH0WE   =  1e-16 
    PK2WE      =      0 
    PKU0WE     = -8e-17 
 

 
Model Name: pod33ll_ckt  

 BSIM4 Model (Level 54)

    MOBMOD = 0
    BINUNIT = 2
    PARAMCHK = 1
    CAPMOD = 2
    DIOMOD = 2
    RDSMOD = 1
    TRNQSMOD = 0
    ACNQSMOD = 0
    RBODYMOD = 0
    RGATEMOD = 0
    PERMOD = 1
    GEOMOD = 0
    RGEOMOD = 1
    FNOIMOD = 1
    TNOIMOD = 0
    IGCMOD = 0
    IGBMOD = 0
    STIMOD = 1
    VBFWDMOD = 0
    VERSION =    4.5 
    TOXREF = 6.02e-09 
    TOXE = 6.119e-09 
    TOXP = 5.979e-09 
    TOXM = 6.119e-09 
    DTOX = 1.4e-10 
    EPSROX =    3.9 
    CDSC =      0 
    CDSCB =      0 
    CDSCD =      0 
    CIT = 0.00063 
    NFACTOR =   1.05 
    XJ = 1.37e-07 
    VSAT = 8.5e+04 
    A0 =  1.495 
    AGS =  0.275 
    A1 =      0 
    A2 =      1 
    AT =  6e+04 
    KETA = -0.002248 
    NSUB =  6e+16 
    NDEP =  1e+17 
    NSD =  1e+20 
    NGATE =  1e+21 
    GAMMA1 =      0 
    GAMMA2 =      0 
    VBX =      0 
    VBM =     -3 
    XT = 1.55e-07 
    K1 =    0.6 
    KT1 = -0.1793 
    KT1L =  2e-08 
    KT2 = -0.02903 
    K2 =  -0.05 
    K3 =      0 
    K3B =    0.7 
    LPE0 =  7e-08 
    LPEB =      0 
    DVTP0 = -1e-07 
    DVTP1 =      0 
    W0 =      0 
    DVT0 =      7 
    DVT1 =   0.36 
    DVT2 =   0.01 
    DVT0W =      0 
    DVT1W =      0 
    DVT2W =      0 
    DROUT =   0.56 
    DSUB =   0.56 
    VTH0 = -0.642 
    EU =   1.67 
    UA = 2.579e-10 
    UA1 = 1.768e-09 
    UB = 1.231e-18 
    UB1 = -3.029e-18 
    UC = -2e-11 
    UC1 = 4.849e-12 
    U0 = 0.01046 
    UTE =     -1 
    VOFF = -0.132 
    VOFFL = -1.4e-08 
    MINV =  -0.08 
    FPROUT =      0 
    PDITS =      0 
    PDITSD =      0 
    PDITSL =      0 
    DELTA =  0.004 
    RDSW =    477 
    RDSWMIN =      0 
    RDWMIN =      0 
    RSWMIN =      0 
    RDW =    270 
    RSW =    270 
    PRWG =      0 
    PRWB =      0 
    PRT =      0 
    ETA0 =   0.08 
    ETAB = -0.152 
    PCLM =  0.362 
    PDIBLC1 =      0 
    PDIBLC2 = 3.06e-05 
    PDIBLCB =      0 
    PSCBE1 = 4.24e+09 
    PSCBE2 =  1e-08 
    PVAG =      0 
    WR =      1 
    DWG =      0 
    DWB =      0 
    XW = 1.23e-08 
    XWREF = 1.23e-08 
    XL = 1.36e-08 
    XLREF = 1.36e-08 
    B0 =      0 
    B1 =      0 
    ALPHA0 = -5.285e-06 
    ALPHA1 =   15.9 
    AGIDL =  5e-10 
    BGIDL =  2e+09 
    CGIDL =    0.5 
    PHIN = 0.04597 
    EGIDL =   0.37 
    AIGC = 0.0098 
    BIGC = 0.000759 
    CIGC =   0.03 
    AIGSD = 0.0098 
    BIGSD = 0.000759 
    CIGSD =   0.03 
    AIGBACC = 0.000949 
    BIGBACC = 0.00171 
    CIGBACC =  0.075 
    AIGBINV = 0.0111 
    BIGBINV = 0.000949 
    CIGBINV =  0.006 
    NIGC =      1 
    NIGBINV =      3 
    NIGBACC =      1 
    NTOX =      1 
    EIGBINV =    1.1 
    PIGCD =      1 
    POXEDGE =      1 
    XRCRG1 =     12 
    TNOIA =    1.5 
    TNOIB =    3.5 
    NTNOI =      1 
    XRCRG2 =      1 
    BETA0 =   33.6 
    IJTHDFWD =    0.1 
    IJTHSFWD =    0.1 
    IJTHDREV =    0.1 
    IJTHSREV =    0.1 
    XJBVD =      1 
    XJBVS =      1 
    BVD =   8.55 
    BVS =   8.55 
    VFB =     -1 
    GBMIN =  1e-12 
    RBDB =     50 
    RBPB =     50 
    RBSB =     50 
    RBPS =     50 
    RBPD =     50 
    CGSL = 3.23e-10 
    CGDL = 3.23e-10 
    CKAPPAS =    0.6 
    CKAPPAD =    0.6 
    CF = 5.478e-11 
    CLC =  1e-07 
    CLE =    0.6 
    DWC = -6.5e-08 
    DLC = 7.306e-08 
    DLCIG =  5e-09 
    DWJ =      0 
    VFBCV =     -1 
    ACDE = 0.5037 
    MOIN =      8 
    NOFF =    1.4 
    VOFFCV =  -0.02 
    DMCG = 9.9e-08 
    DMCI = 1.62e-07 
    DMDG =      0 
    DMCGT =      0 
    XGW =      0 
    XGL =      0 
    RSHG =    0.1 
    NGCON =      1 
    TCJ = 0.0008479 
    TPB = 0.001659 
    TCJSW = 0.000503 
    TPBSW = 0.002829 
    TCJSWG = 0.0002 
    TPBSWG = 0.0003037 
    SK0 =      0 
    SK1 =      0 
    SK2 =      0 
    SL =  2e-06 
    SW =  2e-06 
    K =      0 
    LCIT = -2e-10 
    LVSAT = 0.005595 
    LAT =  -0.07 
    LA0 = -9e-07 
    LAGS = 2.5e-07 
    LKETA = -3.24e-09 
    LKT2 = 1.227e-09 
    LVTH0 = -1.31e-08 
    LUA = 1.616e-16 
    LUA1 = 3.45e-17 
    LUB = -1e-25 
    LUB1 =  1e-25 
    LUC = 4.705e-18 
    LU0 = 1.215e-09 
    LDELTA = 3.23e-09 
    LETA0 = 4.292e-08 
    LETAB = 1.7e-08 
    LPCLM = 1.3e-07 
    LPDIBLC2 =  6e-10 
    LALPHA0 = 8.338e-13 
    LBETA0 = -1.837e-06 
    LAGIDL = -1.4e-16 
    LNOFF =  6e-07 
    LVOFFCV = -4e-08 
    WAT =  0.023 
    WA0 =  5e-09 
    WKETA = 3.031e-09 
    WKT1 = 1.029e-08 
    WVTH0 =  2e-09 
    WUA = -6.12e-17 
    WUB = 1.996e-26 
    WUB1 = 1.94e-25 
    WU0 =  2e-10 
    WPCLM = -1e-08 
    WAGIDL =  6e-16 
    PVSAT = -2.029e-09 
    PAT =  5e-09 
    PA0 = 9.04e-14 
    PKT1 =  8e-15 
    PK2 = -1e-16 
    PDVT1 = 5.016e-15 
    PVTH0 = -1e-15 
    PUA = 4.596e-23 
    PUA1 = 3.438e-24 
    PUB = -3.305e-32 
    PUB1 =  8e-33 
    PUC = -1.25e-24 
    PUC1 = 2.2e-24 
    PU0 = -2e-16 
    PVOFF = -2.128e-15 
    PETA0 = 1.08e-14 
    PAGIDL = -4e-22 
    TNOM =  298.1 
    CGSO = 9.5e-12 
    CGDO = 9.5e-12 
    CGBO =      0 
    XPART =      1 
    RSH =     14 
    JSS = 1.593e-07 
    JSWS = 1.013e-13 
    JSWGS = 1.53e-12 
    PBS =  0.729 
    MJS = 0.3168 
    PBSWS =   1.03 
    MJSWS = 0.1784 
    CJS = 0.001294 
    CJSWS = 6.083e-11 
    NJS = 0.9839 
    PBSWGS = 0.8317 
    MJSWGS =  0.465 
    CJSWGS = 1.698e-10 
    XTIS =      3 
    JSD = 1.593e-07 
    JSWD = 1.013e-13 
    JSWGD = 1.53e-12 
    PBD =  0.729 
    MJD = 0.3168 
    PBSWD =   1.03 
    MJSWD = 0.1784 
    CJD = 0.001294 
    CJSWD = 6.083e-11 
    NJD = 0.9839 
    PBSWGD = 0.8317 
    MJSWGD =  0.465 
    CJSWGD = 1.698e-10 
    XTID =      3 
    LMLT =      1 
    WMLT =      1 
    LINT =  4e-09 
    LL = -5e-15 
    LLC =      0 
    LLN =    0.9 
    LW =      0 
    LWC =      0 
    LWN =      1 
    LWL =      0 
    LWLC =      0 
    LMIN = 3.96e-07 
    LMAX = 0.0001 
    WINT = -2e-08 
    WL = -1.1e-14 
    WLC =      0 
    WLN =   0.98 
    WW =  9e-15 
    WWC =      0 
    WWN =   0.96 
    WWL =      0 
    WWLC =      0 
    WMIN = 2.88e-07 
    WMAX = 0.0001 
    NOIA = 5.223e+41 
    NOIB = 1.399e+26 
    NOIC =  6e+09 
    EM =  2e+09 
    EF =   1.21 
    AF =      1 
    KF =      0 
    TRS =      0 
    TRD =      0 
    TEMPMOD  =      0 
    LAMBDA   =      0 
    VTL      =  2e+05 m/s
    LC       =  5e-09 
    XN       =      3 
    LLAMBDA  =      0 
    LVTL     =      0 
    LXN      =      0 
    WLAMBDA  =      0 
    WVTL     =      0 
    WXN      =      0 
    PLAMBDA  =      0 
    PVTL     =      0 
    PXN      =      0 
    RNOIA    =  0.577 
    RNOIB    = 0.5164 
    SAREF(SA0) = 2.61e-07 m
    SBREF(SB0) = 2.61e-07 m
    WLOD     =      0 m
    KU0      =  3e-09 1/m
    KVSAT    =      1 
    KVTH0    =  4e-09 m
    TKU0     =      0 
    LLODKU0  =      1 
    WLODKU0  =      1 
    LLODVTH  =      1 
    WLODVTH  =      1 
    LKU0     =  2e-06 
    WKU0     =      0 
    PKU0     =      0 
    LKVTH0   =  7e-07 
    WKVTH0   =  3e-07 
    PKVTH0   =  2e-13 
    STK2     =      0 
    LODK2    =      1 
    STETA0   =      0 
    LODETA0  =      1 
    LXRCRG1  =      0 
    WXRCRG1  =      0 
    PXRCRG1  =      0 
    LXRCRG2  =      0 
    WXRCRG2  =      0 
    PXRCRG2  =      0 
 

    *** UCB's BSIM4.4.0 new diode model is activated. ***
    *** UCB's Diode Model Parameters ***

    JTSS         =      0 
    JTSSWS       =      0 
    JTSSWGS      =  7e-10 
    JTSD         =      0 
    JTSSWD       =      0 
    JTSSWGD      =  7e-10 
    NJTS         =     20 
    NJTSSW       =     20 
    NJTSSWG      =     20 
    XTSS         =   0.02 
    XTSSWS       =   0.02 
    XTSSWGS      =   0.02 
    XTSD         =   0.02 
    XTSSWD       =   0.02 
    XTSSWGD      =   0.02 
    TNJTS        =      0 
    TNJTSSW      =      0 
    TNJTSSWG     =      0 
    VFBSDOFF     =      0 
    LVFBSDOFF    =      0 
    WVFBSDOFF    =      0 
    PVFBSDOFF    =      0 
    LINTNOI      = -1.8e-08 
    VTSS         =     10 
    VTSD         =     10 
    VTSSWS       =     10 
    VTSSWD       =     10 
    VTSSWGS      =     10 
    VTSSWGD      =     10 
    TTDIOMOD     =      1 
 

    *** UCB's BSIM4.5.0 new model is activated. ***
    UD         =  1e+14 
    UD1        =      0 
    UP         =      0 
    LP         =  1e-08 
    TVOFF      =  0.005 
    TVFBSDOFF  =      0 
    RBPS0      =     50 
    RBPSL      =      0 
    RBPSW      =      0 
    RBPSNF     =      0 
    RBPD0      =     50 
    RBPDL      =      0 
    RBPDW      =      0 
    RBPDNF     =      0 
    RBPBX0     =    100 
    RBPBXL     =      0 
    RBPBXW     =      0 
    RBPBXNF    =      0 
    RBPBY0     =    100 
    RBPBYL     =      0 
    RBPBYW     =      0 
    RBPBYNF    =      0 
    RBSBX0     =    100 
    RBSBY0     =    100 
    RBDBX0     =    100 
    RBDBY0     =    100 
    RBSDBXL    =      0 
    RBSDBXW    =      0 
    RBSDBXNF   =      0 
    RBSDBYL    =      0 
    RBSDBYW    =      0 
    RBSDBYNF   =      0 
    LUD        =      0 
    LUD1       =      0 
    LUP        =      0 
    LLP        =      0 
    LTVOFF     =      0 
    LTVFBSDOFF =      0 
    WUD        =      0 
    WUD1       =      0 
    WUP        =      0 
    WLP        =      0 
    WTVOFF     = 6.4e-10 
    WTVFBSDOFF =      0 
    PUD        =      0 
    PUD1       =      0 
    PUP        =      0 
    PLP        =      0 
    PTVOFF     =      0 
    PTVFBSDOFF =      0 
    WEB        =     10 
    WEC        =      0 
    KVTH0WE    = -0.008 
    K2WE       =      0 
    KU0WE      = -0.004 
    SCREF      =  1e-06 
    WPEMOD     =      1 
    LKVTH0WE   = -6e-10 
    LK2WE      =      0 
    LKU0WE     =      0 
    WKVTH0WE   =  3e-10 
    WK2WE      =      0 
    WKU0WE     = -1e-10 
    PKVTH0WE   =  1e-16 
    PK2WE      =      0 
    PKU0WE     = -8e-17 
 

 
Model Name: pod33ll_ckt  

 BSIM4 Model (Level 54)

    MOBMOD = 0
    BINUNIT = 2
    PARAMCHK = 1
    CAPMOD = 2
    DIOMOD = 2
    RDSMOD = 1
    TRNQSMOD = 0
    ACNQSMOD = 0
    RBODYMOD = 0
    RGATEMOD = 0
    PERMOD = 1
    GEOMOD = 0
    RGEOMOD = 1
    FNOIMOD = 1
    TNOIMOD = 0
    IGCMOD = 0
    IGBMOD = 0
    STIMOD = 1
    VBFWDMOD = 0
    VERSION =    4.5 
    TOXREF = 6.02e-09 
    TOXE = 6.119e-09 
    TOXP = 5.979e-09 
    TOXM = 6.119e-09 
    DTOX = 1.4e-10 
    EPSROX =    3.9 
    CDSC =      0 
    CDSCB =      0 
    CDSCD =      0 
    CIT = 0.00063 
    NFACTOR =   1.05 
    XJ = 1.37e-07 
    VSAT = 8.5e+04 
    A0 =  1.495 
    AGS =  0.275 
    A1 =      0 
    A2 =      1 
    AT =  6e+04 
    KETA = -0.002248 
    NSUB =  6e+16 
    NDEP =  1e+17 
    NSD =  1e+20 
    NGATE =  1e+21 
    GAMMA1 =      0 
    GAMMA2 =      0 
    VBX =      0 
    VBM =     -3 
    XT = 1.55e-07 
    K1 =    0.6 
    KT1 = -0.1793 
    KT1L =  2e-08 
    KT2 = -0.02903 
    K2 =  -0.05 
    K3 =      0 
    K3B =    0.7 
    LPE0 =  7e-08 
    LPEB =      0 
    DVTP0 = -1e-07 
    DVTP1 =      0 
    W0 =      0 
    DVT0 =      7 
    DVT1 =   0.36 
    DVT2 =   0.01 
    DVT0W =      0 
    DVT1W =      0 
    DVT2W =      0 
    DROUT =   0.56 
    DSUB =   0.56 
    VTH0 = -0.642 
    EU =   1.67 
    UA = 2.579e-10 
    UA1 = 1.768e-09 
    UB = 1.231e-18 
    UB1 = -3.029e-18 
    UC = -2e-11 
    UC1 = 4.849e-12 
    U0 = 0.01046 
    UTE =     -1 
    VOFF = -0.132 
    VOFFL = -1.4e-08 
    MINV =  -0.08 
    FPROUT =      0 
    PDITS =      0 
    PDITSD =      0 
    PDITSL =      0 
    DELTA =  0.004 
    RDSW =    477 
    RDSWMIN =      0 
    RDWMIN =      0 
    RSWMIN =      0 
    RDW =    270 
    RSW =    270 
    PRWG =      0 
    PRWB =      0 
    PRT =      0 
    ETA0 =   0.08 
    ETAB = -0.152 
    PCLM =  0.362 
    PDIBLC1 =      0 
    PDIBLC2 = 3.06e-05 
    PDIBLCB =      0 
    PSCBE1 = 4.24e+09 
    PSCBE2 =  1e-08 
    PVAG =      0 
    WR =      1 
    DWG =      0 
    DWB =      0 
    XW = 1.23e-08 
    XWREF = 1.23e-08 
    XL = 1.36e-08 
    XLREF = 1.36e-08 
    B0 =      0 
    B1 =      0 
    ALPHA0 = -5.285e-06 
    ALPHA1 =   15.9 
    AGIDL =  5e-10 
    BGIDL =  2e+09 
    CGIDL =    0.5 
    PHIN = 0.04597 
    EGIDL =   0.37 
    AIGC = 0.0098 
    BIGC = 0.000759 
    CIGC =   0.03 
    AIGSD = 0.0098 
    BIGSD = 0.000759 
    CIGSD =   0.03 
    AIGBACC = 0.000949 
    BIGBACC = 0.00171 
    CIGBACC =  0.075 
    AIGBINV = 0.0111 
    BIGBINV = 0.000949 
    CIGBINV =  0.006 
    NIGC =      1 
    NIGBINV =      3 
    NIGBACC =      1 
    NTOX =      1 
    EIGBINV =    1.1 
    PIGCD =      1 
    POXEDGE =      1 
    XRCRG1 =     12 
    TNOIA =    1.5 
    TNOIB =    3.5 
    NTNOI =      1 
    XRCRG2 =      1 
    BETA0 =   33.6 
    IJTHDFWD =    0.1 
    IJTHSFWD =    0.1 
    IJTHDREV =    0.1 
    IJTHSREV =    0.1 
    XJBVD =      1 
    XJBVS =      1 
    BVD =   8.55 
    BVS =   8.55 
    VFB =     -1 
    GBMIN =  1e-12 
    RBDB =     50 
    RBPB =     50 
    RBSB =     50 
    RBPS =     50 
    RBPD =     50 
    CGSL = 3.23e-10 
    CGDL = 3.23e-10 
    CKAPPAS =    0.6 
    CKAPPAD =    0.6 
    CF = 5.478e-11 
    CLC =  1e-07 
    CLE =    0.6 
    DWC = -6.5e-08 
    DLC = 7.306e-08 
    DLCIG =  5e-09 
    DWJ =      0 
    VFBCV =     -1 
    ACDE = 0.5037 
    MOIN =      8 
    NOFF =    1.4 
    VOFFCV =  -0.02 
    DMCG = 9.9e-08 
    DMCI = 1.62e-07 
    DMDG =      0 
    DMCGT =      0 
    XGW =      0 
    XGL =      0 
    RSHG =    0.1 
    NGCON =      1 
    TCJ = 0.0008479 
    TPB = 0.001659 
    TCJSW = 0.000503 
    TPBSW = 0.002829 
    TCJSWG = 0.0002 
    TPBSWG = 0.0003037 
    SK0 =      0 
    SK1 =      0 
    SK2 =      0 
    SL =  2e-06 
    SW =  2e-06 
    K =      0 
    LCIT = -2e-10 
    LVSAT = 0.005595 
    LAT =  -0.07 
    LA0 = -9e-07 
    LAGS = 2.5e-07 
    LKETA = -3.24e-09 
    LKT2 = 1.227e-09 
    LVTH0 = -1.31e-08 
    LUA = 1.616e-16 
    LUA1 = 3.45e-17 
    LUB = -1e-25 
    LUB1 =  1e-25 
    LUC = 4.705e-18 
    LU0 = 1.215e-09 
    LDELTA = 3.23e-09 
    LETA0 = 4.292e-08 
    LETAB = 1.7e-08 
    LPCLM = 1.3e-07 
    LPDIBLC2 =  6e-10 
    LALPHA0 = 8.338e-13 
    LBETA0 = -1.837e-06 
    LAGIDL = -1.4e-16 
    LNOFF =  6e-07 
    LVOFFCV = -4e-08 
    WAT =  0.023 
    WA0 =  5e-09 
    WKETA = 3.031e-09 
    WKT1 = 1.029e-08 
    WVTH0 =  2e-09 
    WUA = -6.12e-17 
    WUB = 1.996e-26 
    WUB1 = 1.94e-25 
    WU0 =  2e-10 
    WPCLM = -1e-08 
    WAGIDL =  6e-16 
    PVSAT = -2.029e-09 
    PAT =  5e-09 
    PA0 = 9.04e-14 
    PKT1 =  8e-15 
    PK2 = -1e-16 
    PDVT1 = 5.016e-15 
    PVTH0 = -1e-15 
    PUA = 4.596e-23 
    PUA1 = 3.438e-24 
    PUB = -3.305e-32 
    PUB1 =  8e-33 
    PUC = -1.25e-24 
    PUC1 = 2.2e-24 
    PU0 = -2e-16 
    PVOFF = -2.128e-15 
    PETA0 = 1.08e-14 
    PAGIDL = -4e-22 
    TNOM =  298.1 
    CGSO = 9.5e-12 
    CGDO = 9.5e-12 
    CGBO =      0 
    XPART =      1 
    RSH =     14 
    JSS = 1.593e-07 
    JSWS = 1.013e-13 
    JSWGS = 1.53e-12 
    PBS =  0.729 
    MJS = 0.3168 
    PBSWS =   1.03 
    MJSWS = 0.1784 
    CJS = 0.001294 
    CJSWS = 6.083e-11 
    NJS = 0.9839 
    PBSWGS = 0.8317 
    MJSWGS =  0.465 
    CJSWGS = 1.698e-10 
    XTIS =      3 
    JSD = 1.593e-07 
    JSWD = 1.013e-13 
    JSWGD = 1.53e-12 
    PBD =  0.729 
    MJD = 0.3168 
    PBSWD =   1.03 
    MJSWD = 0.1784 
    CJD = 0.001294 
    CJSWD = 6.083e-11 
    NJD = 0.9839 
    PBSWGD = 0.8317 
    MJSWGD =  0.465 
    CJSWGD = 1.698e-10 
    XTID =      3 
    LMLT =      1 
    WMLT =      1 
    LINT =  4e-09 
    LL = -5e-15 
    LLC =      0 
    LLN =    0.9 
    LW =      0 
    LWC =      0 
    LWN =      1 
    LWL =      0 
    LWLC =      0 
    LMIN = 3.96e-07 
    LMAX = 0.0001 
    WINT = -2e-08 
    WL = -1.1e-14 
    WLC =      0 
    WLN =   0.98 
    WW =  9e-15 
    WWC =      0 
    WWN =   0.96 
    WWL =      0 
    WWLC =      0 
    WMIN = 2.88e-07 
    WMAX = 0.0001 
    NOIA = 5.223e+41 
    NOIB = 1.399e+26 
    NOIC =  6e+09 
    EM =  2e+09 
    EF =   1.21 
    AF =      1 
    KF =      0 
    TRS =      0 
    TRD =      0 
    TEMPMOD  =      0 
    LAMBDA   =      0 
    VTL      =  2e+05 m/s
    LC       =  5e-09 
    XN       =      3 
    LLAMBDA  =      0 
    LVTL     =      0 
    LXN      =      0 
    WLAMBDA  =      0 
    WVTL     =      0 
    WXN      =      0 
    PLAMBDA  =      0 
    PVTL     =      0 
    PXN      =      0 
    RNOIA    =  0.577 
    RNOIB    = 0.5164 
    SAREF(SA0) = 2.61e-07 m
    SBREF(SB0) = 2.61e-07 m
    WLOD     =      0 m
    KU0      =  3e-09 1/m
    KVSAT    =      1 
    KVTH0    =  4e-09 m
    TKU0     =      0 
    LLODKU0  =      1 
    WLODKU0  =      1 
    LLODVTH  =      1 
    WLODVTH  =      1 
    LKU0     =  2e-06 
    WKU0     =      0 
    PKU0     =      0 
    LKVTH0   =  7e-07 
    WKVTH0   =  3e-07 
    PKVTH0   =  2e-13 
    STK2     =      0 
    LODK2    =      1 
    STETA0   =      0 
    LODETA0  =      1 
    LXRCRG1  =      0 
    WXRCRG1  =      0 
    PXRCRG1  =      0 
    LXRCRG2  =      0 
    WXRCRG2  =      0 
    PXRCRG2  =      0 
 

    *** UCB's BSIM4.4.0 new diode model is activated. ***
    *** UCB's Diode Model Parameters ***

    JTSS         =      0 
    JTSSWS       =      0 
    JTSSWGS      =  7e-10 
    JTSD         =      0 
    JTSSWD       =      0 
    JTSSWGD      =  7e-10 
    NJTS         =     20 
    NJTSSW       =     20 
    NJTSSWG      =     20 
    XTSS         =   0.02 
    XTSSWS       =   0.02 
    XTSSWGS      =   0.02 
    XTSD         =   0.02 
    XTSSWD       =   0.02 
    XTSSWGD      =   0.02 
    TNJTS        =      0 
    TNJTSSW      =      0 
    TNJTSSWG     =      0 
    VFBSDOFF     =      0 
    LVFBSDOFF    =      0 
    WVFBSDOFF    =      0 
    PVFBSDOFF    =      0 
    LINTNOI      = -1.8e-08 
    VTSS         =     10 
    VTSD         =     10 
    VTSSWS       =     10 
    VTSSWD       =     10 
    VTSSWGS      =     10 
    VTSSWGD      =     10 
    TTDIOMOD     =      1 
 

    *** UCB's BSIM4.5.0 new model is activated. ***
    UD         =  1e+14 
    UD1        =      0 
    UP         =      0 
    LP         =  1e-08 
    TVOFF      =  0.005 
    TVFBSDOFF  =      0 
    RBPS0      =     50 
    RBPSL      =      0 
    RBPSW      =      0 
    RBPSNF     =      0 
    RBPD0      =     50 
    RBPDL      =      0 
    RBPDW      =      0 
    RBPDNF     =      0 
    RBPBX0     =    100 
    RBPBXL     =      0 
    RBPBXW     =      0 
    RBPBXNF    =      0 
    RBPBY0     =    100 
    RBPBYL     =      0 
    RBPBYW     =      0 
    RBPBYNF    =      0 
    RBSBX0     =    100 
    RBSBY0     =    100 
    RBDBX0     =    100 
    RBDBY0     =    100 
    RBSDBXL    =      0 
    RBSDBXW    =      0 
    RBSDBXNF   =      0 
    RBSDBYL    =      0 
    RBSDBYW    =      0 
    RBSDBYNF   =      0 
    LUD        =      0 
    LUD1       =      0 
    LUP        =      0 
    LLP        =      0 
    LTVOFF     =      0 
    LTVFBSDOFF =      0 
    WUD        =      0 
    WUD1       =      0 
    WUP        =      0 
    WLP        =      0 
    WTVOFF     = 6.4e-10 
    WTVFBSDOFF =      0 
    PUD        =      0 
    PUD1       =      0 
    PUP        =      0 
    PLP        =      0 
    PTVOFF     =      0 
    PTVFBSDOFF =      0 
    WEB        =     10 
    WEC        =      0 
    KVTH0WE    = -0.008 
    K2WE       =      0 
    KU0WE      = -0.004 
    SCREF      =  1e-06 
    WPEMOD     =      1 
    LKVTH0WE   = -6e-10 
    LK2WE      =      0 
    LKU0WE     =      0 
    WKVTH0WE   =  3e-10 
    WK2WE      =      0 
    WKU0WE     = -1e-10 
    PKVTH0WE   =  1e-16 
    PK2WE      =      0 
    PKU0WE     = -8e-17 
 

 
Model Name: pod33ll_ckt  

 BSIM4 Model (Level 54)

    MOBMOD = 0
    BINUNIT = 2
    PARAMCHK = 1
    CAPMOD = 2
    DIOMOD = 2
    RDSMOD = 1
    TRNQSMOD = 0
    ACNQSMOD = 0
    RBODYMOD = 0
    RGATEMOD = 0
    PERMOD = 1
    GEOMOD = 0
    RGEOMOD = 1
    FNOIMOD = 1
    TNOIMOD = 0
    IGCMOD = 0
    IGBMOD = 0
    STIMOD = 1
    VBFWDMOD = 0
    VERSION =    4.5 
    TOXREF = 6.02e-09 
    TOXE = 6.119e-09 
    TOXP = 5.979e-09 
    TOXM = 6.119e-09 
    DTOX = 1.4e-10 
    EPSROX =    3.9 
    CDSC =      0 
    CDSCB =      0 
    CDSCD =      0 
    CIT = 0.00063 
    NFACTOR =   1.05 
    XJ = 1.37e-07 
    VSAT = 8.5e+04 
    A0 =  1.495 
    AGS =  0.275 
    A1 =      0 
    A2 =      1 
    AT =  6e+04 
    KETA = -0.002248 
    NSUB =  6e+16 
    NDEP =  1e+17 
    NSD =  1e+20 
    NGATE =  1e+21 
    GAMMA1 =      0 
    GAMMA2 =      0 
    VBX =      0 
    VBM =     -3 
    XT = 1.55e-07 
    K1 =    0.6 
    KT1 = -0.1793 
    KT1L =  2e-08 
    KT2 = -0.02903 
    K2 =  -0.05 
    K3 =      0 
    K3B =    0.7 
    LPE0 =  7e-08 
    LPEB =      0 
    DVTP0 = -1e-07 
    DVTP1 =      0 
    W0 =      0 
    DVT0 =      7 
    DVT1 =   0.36 
    DVT2 =   0.01 
    DVT0W =      0 
    DVT1W =      0 
    DVT2W =      0 
    DROUT =   0.56 
    DSUB =   0.56 
    VTH0 = -0.642 
    EU =   1.67 
    UA = 2.579e-10 
    UA1 = 1.768e-09 
    UB = 1.231e-18 
    UB1 = -3.029e-18 
    UC = -2e-11 
    UC1 = 4.849e-12 
    U0 = 0.01046 
    UTE =     -1 
    VOFF = -0.132 
    VOFFL = -1.4e-08 
    MINV =  -0.08 
    FPROUT =      0 
    PDITS =      0 
    PDITSD =      0 
    PDITSL =      0 
    DELTA =  0.004 
    RDSW =    477 
    RDSWMIN =      0 
    RDWMIN =      0 
    RSWMIN =      0 
    RDW =    270 
    RSW =    270 
    PRWG =      0 
    PRWB =      0 
    PRT =      0 
    ETA0 =   0.08 
    ETAB = -0.152 
    PCLM =  0.362 
    PDIBLC1 =      0 
    PDIBLC2 = 3.06e-05 
    PDIBLCB =      0 
    PSCBE1 = 4.24e+09 
    PSCBE2 =  1e-08 
    PVAG =      0 
    WR =      1 
    DWG =      0 
    DWB =      0 
    XW = 1.23e-08 
    XWREF = 1.23e-08 
    XL = 1.36e-08 
    XLREF = 1.36e-08 
    B0 =      0 
    B1 =      0 
    ALPHA0 = -5.285e-06 
    ALPHA1 =   15.9 
    AGIDL =  5e-10 
    BGIDL =  2e+09 
    CGIDL =    0.5 
    PHIN = 0.04597 
    EGIDL =   0.37 
    AIGC = 0.0098 
    BIGC = 0.000759 
    CIGC =   0.03 
    AIGSD = 0.0098 
    BIGSD = 0.000759 
    CIGSD =   0.03 
    AIGBACC = 0.000949 
    BIGBACC = 0.00171 
    CIGBACC =  0.075 
    AIGBINV = 0.0111 
    BIGBINV = 0.000949 
    CIGBINV =  0.006 
    NIGC =      1 
    NIGBINV =      3 
    NIGBACC =      1 
    NTOX =      1 
    EIGBINV =    1.1 
    PIGCD =      1 
    POXEDGE =      1 
    XRCRG1 =     12 
    TNOIA =    1.5 
    TNOIB =    3.5 
    NTNOI =      1 
    XRCRG2 =      1 
    BETA0 =   33.6 
    IJTHDFWD =    0.1 
    IJTHSFWD =    0.1 
    IJTHDREV =    0.1 
    IJTHSREV =    0.1 
    XJBVD =      1 
    XJBVS =      1 
    BVD =   8.55 
    BVS =   8.55 
    VFB =     -1 
    GBMIN =  1e-12 
    RBDB =     50 
    RBPB =     50 
    RBSB =     50 
    RBPS =     50 
    RBPD =     50 
    CGSL = 3.23e-10 
    CGDL = 3.23e-10 
    CKAPPAS =    0.6 
    CKAPPAD =    0.6 
    CF = 5.478e-11 
    CLC =  1e-07 
    CLE =    0.6 
    DWC = -6.5e-08 
    DLC = 7.306e-08 
    DLCIG =  5e-09 
    DWJ =      0 
    VFBCV =     -1 
    ACDE = 0.5037 
    MOIN =      8 
    NOFF =    1.4 
    VOFFCV =  -0.02 
    DMCG = 9.9e-08 
    DMCI = 1.62e-07 
    DMDG =      0 
    DMCGT =      0 
    XGW =      0 
    XGL =      0 
    RSHG =    0.1 
    NGCON =      1 
    TCJ = 0.0008479 
    TPB = 0.001659 
    TCJSW = 0.000503 
    TPBSW = 0.002829 
    TCJSWG = 0.0002 
    TPBSWG = 0.0003037 
    SK0 =      0 
    SK1 =      0 
    SK2 =      0 
    SL =  2e-06 
    SW =  2e-06 
    K =      0 
    LCIT = -2e-10 
    LVSAT = 0.005595 
    LAT =  -0.07 
    LA0 = -9e-07 
    LAGS = 2.5e-07 
    LKETA = -3.24e-09 
    LKT2 = 1.227e-09 
    LVTH0 = -1.31e-08 
    LUA = 1.616e-16 
    LUA1 = 3.45e-17 
    LUB = -1e-25 
    LUB1 =  1e-25 
    LUC = 4.705e-18 
    LU0 = 1.215e-09 
    LDELTA = 3.23e-09 
    LETA0 = 4.292e-08 
    LETAB = 1.7e-08 
    LPCLM = 1.3e-07 
    LPDIBLC2 =  6e-10 
    LALPHA0 = 8.338e-13 
    LBETA0 = -1.837e-06 
    LAGIDL = -1.4e-16 
    LNOFF =  6e-07 
    LVOFFCV = -4e-08 
    WAT =  0.023 
    WA0 =  5e-09 
    WKETA = 3.031e-09 
    WKT1 = 1.029e-08 
    WVTH0 =  2e-09 
    WUA = -6.12e-17 
    WUB = 1.996e-26 
    WUB1 = 1.94e-25 
    WU0 =  2e-10 
    WPCLM = -1e-08 
    WAGIDL =  6e-16 
    PVSAT = -2.029e-09 
    PAT =  5e-09 
    PA0 = 9.04e-14 
    PKT1 =  8e-15 
    PK2 = -1e-16 
    PDVT1 = 5.016e-15 
    PVTH0 = -1e-15 
    PUA = 4.596e-23 
    PUA1 = 3.438e-24 
    PUB = -3.305e-32 
    PUB1 =  8e-33 
    PUC = -1.25e-24 
    PUC1 = 2.2e-24 
    PU0 = -2e-16 
    PVOFF = -2.128e-15 
    PETA0 = 1.08e-14 
    PAGIDL = -4e-22 
    TNOM =  298.1 
    CGSO = 9.5e-12 
    CGDO = 9.5e-12 
    CGBO =      0 
    XPART =      1 
    RSH =     14 
    JSS = 1.593e-07 
    JSWS = 1.013e-13 
    JSWGS = 1.53e-12 
    PBS =  0.729 
    MJS = 0.3168 
    PBSWS =   1.03 
    MJSWS = 0.1784 
    CJS = 0.001294 
    CJSWS = 6.083e-11 
    NJS = 0.9839 
    PBSWGS = 0.8317 
    MJSWGS =  0.465 
    CJSWGS = 1.698e-10 
    XTIS =      3 
    JSD = 1.593e-07 
    JSWD = 1.013e-13 
    JSWGD = 1.53e-12 
    PBD =  0.729 
    MJD = 0.3168 
    PBSWD =   1.03 
    MJSWD = 0.1784 
    CJD = 0.001294 
    CJSWD = 6.083e-11 
    NJD = 0.9839 
    PBSWGD = 0.8317 
    MJSWGD =  0.465 
    CJSWGD = 1.698e-10 
    XTID =      3 
    LMLT =      1 
    WMLT =      1 
    LINT =  4e-09 
    LL = -5e-15 
    LLC =      0 
    LLN =    0.9 
    LW =      0 
    LWC =      0 
    LWN =      1 
    LWL =      0 
    LWLC =      0 
    LMIN = 3.96e-07 
    LMAX = 0.0001 
    WINT = -2e-08 
    WL = -1.1e-14 
    WLC =      0 
    WLN =   0.98 
    WW =  9e-15 
    WWC =      0 
    WWN =   0.96 
    WWL =      0 
    WWLC =      0 
    WMIN = 2.88e-07 
    WMAX = 0.0001 
    NOIA = 5.223e+41 
    NOIB = 1.399e+26 
    NOIC =  6e+09 
    EM =  2e+09 
    EF =   1.21 
    AF =      1 
    KF =      0 
    TRS =      0 
    TRD =      0 
    TEMPMOD  =      0 
    LAMBDA   =      0 
    VTL      =  2e+05 m/s
    LC       =  5e-09 
    XN       =      3 
    LLAMBDA  =      0 
    LVTL     =      0 
    LXN      =      0 
    WLAMBDA  =      0 
    WVTL     =      0 
    WXN      =      0 
    PLAMBDA  =      0 
    PVTL     =      0 
    PXN      =      0 
    RNOIA    =  0.577 
    RNOIB    = 0.5164 
    SAREF(SA0) = 2.61e-07 m
    SBREF(SB0) = 2.61e-07 m
    WLOD     =      0 m
    KU0      =  3e-09 1/m
    KVSAT    =      1 
    KVTH0    =  4e-09 m
    TKU0     =      0 
    LLODKU0  =      1 
    WLODKU0  =      1 
    LLODVTH  =      1 
    WLODVTH  =      1 
    LKU0     =  2e-06 
    WKU0     =      0 
    PKU0     =      0 
    LKVTH0   =  7e-07 
    WKVTH0   =  3e-07 
    PKVTH0   =  2e-13 
    STK2     =      0 
    LODK2    =      1 
    STETA0   =      0 
    LODETA0  =      1 
    LXRCRG1  =      0 
    WXRCRG1  =      0 
    PXRCRG1  =      0 
    LXRCRG2  =      0 
    WXRCRG2  =      0 
    PXRCRG2  =      0 
 

    *** UCB's BSIM4.4.0 new diode model is activated. ***
    *** UCB's Diode Model Parameters ***

    JTSS         =      0 
    JTSSWS       =      0 
    JTSSWGS      =  7e-10 
    JTSD         =      0 
    JTSSWD       =      0 
    JTSSWGD      =  7e-10 
    NJTS         =     20 
    NJTSSW       =     20 
    NJTSSWG      =     20 
    XTSS         =   0.02 
    XTSSWS       =   0.02 
    XTSSWGS      =   0.02 
    XTSD         =   0.02 
    XTSSWD       =   0.02 
    XTSSWGD      =   0.02 
    TNJTS        =      0 
    TNJTSSW      =      0 
    TNJTSSWG     =      0 
    VFBSDOFF     =      0 
    LVFBSDOFF    =      0 
    WVFBSDOFF    =      0 
    PVFBSDOFF    =      0 
    LINTNOI      = -1.8e-08 
    VTSS         =     10 
    VTSD         =     10 
    VTSSWS       =     10 
    VTSSWD       =     10 
    VTSSWGS      =     10 
    VTSSWGD      =     10 
    TTDIOMOD     =      1 
 

    *** UCB's BSIM4.5.0 new model is activated. ***
    UD         =  1e+14 
    UD1        =      0 
    UP         =      0 
    LP         =  1e-08 
    TVOFF      =  0.005 
    TVFBSDOFF  =      0 
    RBPS0      =     50 
    RBPSL      =      0 
    RBPSW      =      0 
    RBPSNF     =      0 
    RBPD0      =     50 
    RBPDL      =      0 
    RBPDW      =      0 
    RBPDNF     =      0 
    RBPBX0     =    100 
    RBPBXL     =      0 
    RBPBXW     =      0 
    RBPBXNF    =      0 
    RBPBY0     =    100 
    RBPBYL     =      0 
    RBPBYW     =      0 
    RBPBYNF    =      0 
    RBSBX0     =    100 
    RBSBY0     =    100 
    RBDBX0     =    100 
    RBDBY0     =    100 
    RBSDBXL    =      0 
    RBSDBXW    =      0 
    RBSDBXNF   =      0 
    RBSDBYL    =      0 
    RBSDBYW    =      0 
    RBSDBYNF   =      0 
    LUD        =      0 
    LUD1       =      0 
    LUP        =      0 
    LLP        =      0 
    LTVOFF     =      0 
    LTVFBSDOFF =      0 
    WUD        =      0 
    WUD1       =      0 
    WUP        =      0 
    WLP        =      0 
    WTVOFF     = 6.4e-10 
    WTVFBSDOFF =      0 
    PUD        =      0 
    PUD1       =      0 
    PUP        =      0 
    PLP        =      0 
    PTVOFF     =      0 
    PTVFBSDOFF =      0 
    WEB        =     10 
    WEC        =      0 
    KVTH0WE    = -0.008 
    K2WE       =      0 
    KU0WE      = -0.004 
    SCREF      =  1e-06 
    WPEMOD     =      1 
    LKVTH0WE   = -6e-10 
    LK2WE      =      0 
    LKU0WE     =      0 
    WKVTH0WE   =  3e-10 
    WK2WE      =      0 
    WKU0WE     = -1e-10 
    PKVTH0WE   =  1e-16 
    PK2WE      =      0 
    PKU0WE     = -8e-17 
 

 
Model Name: pod33ll_ckt  

 BSIM4 Model (Level 54)

    MOBMOD = 0
    BINUNIT = 2
    PARAMCHK = 1
    CAPMOD = 2
    DIOMOD = 2
    RDSMOD = 1
    TRNQSMOD = 0
    ACNQSMOD = 0
    RBODYMOD = 0
    RGATEMOD = 0
    PERMOD = 1
    GEOMOD = 0
    RGEOMOD = 1
    FNOIMOD = 1
    TNOIMOD = 0
    IGCMOD = 0
    IGBMOD = 0
    STIMOD = 1
    VBFWDMOD = 0
    VERSION =    4.5 
    TOXREF = 6.02e-09 
    TOXE = 6.119e-09 
    TOXP = 5.979e-09 
    TOXM = 6.119e-09 
    DTOX = 1.4e-10 
    EPSROX =    3.9 
    CDSC =      0 
    CDSCB =      0 
    CDSCD =      0 
    CIT = 0.00063 
    NFACTOR =   1.05 
    XJ = 1.37e-07 
    VSAT = 8.5e+04 
    A0 =  1.495 
    AGS =  0.275 
    A1 =      0 
    A2 =      1 
    AT =  6e+04 
    KETA = -0.002248 
    NSUB =  6e+16 
    NDEP =  1e+17 
    NSD =  1e+20 
    NGATE =  1e+21 
    GAMMA1 =      0 
    GAMMA2 =      0 
    VBX =      0 
    VBM =     -3 
    XT = 1.55e-07 
    K1 =    0.6 
    KT1 = -0.1793 
    KT1L =  2e-08 
    KT2 = -0.02903 
    K2 =  -0.05 
    K3 =      0 
    K3B =    0.7 
    LPE0 =  7e-08 
    LPEB =      0 
    DVTP0 = -1e-07 
    DVTP1 =      0 
    W0 =      0 
    DVT0 =      7 
    DVT1 =   0.36 
    DVT2 =   0.01 
    DVT0W =      0 
    DVT1W =      0 
    DVT2W =      0 
    DROUT =   0.56 
    DSUB =   0.56 
    VTH0 = -0.642 
    EU =   1.67 
    UA = 2.579e-10 
    UA1 = 1.768e-09 
    UB = 1.231e-18 
    UB1 = -3.029e-18 
    UC = -2e-11 
    UC1 = 4.849e-12 
    U0 = 0.01046 
    UTE =     -1 
    VOFF = -0.132 
    VOFFL = -1.4e-08 
    MINV =  -0.08 
    FPROUT =      0 
    PDITS =      0 
    PDITSD =      0 
    PDITSL =      0 
    DELTA =  0.004 
    RDSW =    477 
    RDSWMIN =      0 
    RDWMIN =      0 
    RSWMIN =      0 
    RDW =    270 
    RSW =    270 
    PRWG =      0 
    PRWB =      0 
    PRT =      0 
    ETA0 =   0.08 
    ETAB = -0.152 
    PCLM =  0.362 
    PDIBLC1 =      0 
    PDIBLC2 = 3.06e-05 
    PDIBLCB =      0 
    PSCBE1 = 4.24e+09 
    PSCBE2 =  1e-08 
    PVAG =      0 
    WR =      1 
    DWG =      0 
    DWB =      0 
    XW = 1.23e-08 
    XWREF = 1.23e-08 
    XL = 1.36e-08 
    XLREF = 1.36e-08 
    B0 =      0 
    B1 =      0 
    ALPHA0 = -5.285e-06 
    ALPHA1 =   15.9 
    AGIDL =  5e-10 
    BGIDL =  2e+09 
    CGIDL =    0.5 
    PHIN = 0.04597 
    EGIDL =   0.37 
    AIGC = 0.0098 
    BIGC = 0.000759 
    CIGC =   0.03 
    AIGSD = 0.0098 
    BIGSD = 0.000759 
    CIGSD =   0.03 
    AIGBACC = 0.000949 
    BIGBACC = 0.00171 
    CIGBACC =  0.075 
    AIGBINV = 0.0111 
    BIGBINV = 0.000949 
    CIGBINV =  0.006 
    NIGC =      1 
    NIGBINV =      3 
    NIGBACC =      1 
    NTOX =      1 
    EIGBINV =    1.1 
    PIGCD =      1 
    POXEDGE =      1 
    XRCRG1 =     12 
    TNOIA =    1.5 
    TNOIB =    3.5 
    NTNOI =      1 
    XRCRG2 =      1 
    BETA0 =   33.6 
    IJTHDFWD =    0.1 
    IJTHSFWD =    0.1 
    IJTHDREV =    0.1 
    IJTHSREV =    0.1 
    XJBVD =      1 
    XJBVS =      1 
    BVD =   8.55 
    BVS =   8.55 
    VFB =     -1 
    GBMIN =  1e-12 
    RBDB =     50 
    RBPB =     50 
    RBSB =     50 
    RBPS =     50 
    RBPD =     50 
    CGSL = 3.23e-10 
    CGDL = 3.23e-10 
    CKAPPAS =    0.6 
    CKAPPAD =    0.6 
    CF = 5.478e-11 
    CLC =  1e-07 
    CLE =    0.6 
    DWC = -6.5e-08 
    DLC = 7.306e-08 
    DLCIG =  5e-09 
    DWJ =      0 
    VFBCV =     -1 
    ACDE = 0.5037 
    MOIN =      8 
    NOFF =    1.4 
    VOFFCV =  -0.02 
    DMCG = 9.9e-08 
    DMCI = 1.62e-07 
    DMDG =      0 
    DMCGT =      0 
    XGW =      0 
    XGL =      0 
    RSHG =    0.1 
    NGCON =      1 
    TCJ = 0.0008479 
    TPB = 0.001659 
    TCJSW = 0.000503 
    TPBSW = 0.002829 
    TCJSWG = 0.0002 
    TPBSWG = 0.0003037 
    SK0 =      0 
    SK1 =      0 
    SK2 =      0 
    SL =  2e-06 
    SW =  2e-06 
    K =      0 
    LCIT = -2e-10 
    LVSAT = 0.005595 
    LAT =  -0.07 
    LA0 = -9e-07 
    LAGS = 2.5e-07 
    LKETA = -3.24e-09 
    LKT2 = 1.227e-09 
    LVTH0 = -1.31e-08 
    LUA = 1.616e-16 
    LUA1 = 3.45e-17 
    LUB = -1e-25 
    LUB1 =  1e-25 
    LUC = 4.705e-18 
    LU0 = 1.215e-09 
    LDELTA = 3.23e-09 
    LETA0 = 4.292e-08 
    LETAB = 1.7e-08 
    LPCLM = 1.3e-07 
    LPDIBLC2 =  6e-10 
    LALPHA0 = 8.338e-13 
    LBETA0 = -1.837e-06 
    LAGIDL = -1.4e-16 
    LNOFF =  6e-07 
    LVOFFCV = -4e-08 
    WAT =  0.023 
    WA0 =  5e-09 
    WKETA = 3.031e-09 
    WKT1 = 1.029e-08 
    WVTH0 =  2e-09 
    WUA = -6.12e-17 
    WUB = 1.996e-26 
    WUB1 = 1.94e-25 
    WU0 =  2e-10 
    WPCLM = -1e-08 
    WAGIDL =  6e-16 
    PVSAT = -2.029e-09 
    PAT =  5e-09 
    PA0 = 9.04e-14 
    PKT1 =  8e-15 
    PK2 = -1e-16 
    PDVT1 = 5.016e-15 
    PVTH0 = -1e-15 
    PUA = 4.596e-23 
    PUA1 = 3.438e-24 
    PUB = -3.305e-32 
    PUB1 =  8e-33 
    PUC = -1.25e-24 
    PUC1 = 2.2e-24 
    PU0 = -2e-16 
    PVOFF = -2.128e-15 
    PETA0 = 1.08e-14 
    PAGIDL = -4e-22 
    TNOM =  298.1 
    CGSO = 9.5e-12 
    CGDO = 9.5e-12 
    CGBO =      0 
    XPART =      1 
    RSH =     14 
    JSS = 1.593e-07 
    JSWS = 1.013e-13 
    JSWGS = 1.53e-12 
    PBS =  0.729 
    MJS = 0.3168 
    PBSWS =   1.03 
    MJSWS = 0.1784 
    CJS = 0.001294 
    CJSWS = 6.083e-11 
    NJS = 0.9839 
    PBSWGS = 0.8317 
    MJSWGS =  0.465 
    CJSWGS = 1.698e-10 
    XTIS =      3 
    JSD = 1.593e-07 
    JSWD = 1.013e-13 
    JSWGD = 1.53e-12 
    PBD =  0.729 
    MJD = 0.3168 
    PBSWD =   1.03 
    MJSWD = 0.1784 
    CJD = 0.001294 
    CJSWD = 6.083e-11 
    NJD = 0.9839 
    PBSWGD = 0.8317 
    MJSWGD =  0.465 
    CJSWGD = 1.698e-10 
    XTID =      3 
    LMLT =      1 
    WMLT =      1 
    LINT =  4e-09 
    LL = -5e-15 
    LLC =      0 
    LLN =    0.9 
    LW =      0 
    LWC =      0 
    LWN =      1 
    LWL =      0 
    LWLC =      0 
    LMIN = 3.96e-07 
    LMAX = 0.0001 
    WINT = -2e-08 
    WL = -1.1e-14 
    WLC =      0 
    WLN =   0.98 
    WW =  9e-15 
    WWC =      0 
    WWN =   0.96 
    WWL =      0 
    WWLC =      0 
    WMIN = 2.88e-07 
    WMAX = 0.0001 
    NOIA = 5.223e+41 
    NOIB = 1.399e+26 
    NOIC =  6e+09 
    EM =  2e+09 
    EF =   1.21 
    AF =      1 
    KF =      0 
    TRS =      0 
    TRD =      0 
    TEMPMOD  =      0 
    LAMBDA   =      0 
    VTL      =  2e+05 m/s
    LC       =  5e-09 
    XN       =      3 
    LLAMBDA  =      0 
    LVTL     =      0 
    LXN      =      0 
    WLAMBDA  =      0 
    WVTL     =      0 
    WXN      =      0 
    PLAMBDA  =      0 
    PVTL     =      0 
    PXN      =      0 
    RNOIA    =  0.577 
    RNOIB    = 0.5164 
    SAREF(SA0) = 2.61e-07 m
    SBREF(SB0) = 2.61e-07 m
    WLOD     =      0 m
    KU0      =  3e-09 1/m
    KVSAT    =      1 
    KVTH0    =  4e-09 m
    TKU0     =      0 
    LLODKU0  =      1 
    WLODKU0  =      1 
    LLODVTH  =      1 
    WLODVTH  =      1 
    LKU0     =  2e-06 
    WKU0     =      0 
    PKU0     =      0 
    LKVTH0   =  7e-07 
    WKVTH0   =  3e-07 
    PKVTH0   =  2e-13 
    STK2     =      0 
    LODK2    =      1 
    STETA0   =      0 
    LODETA0  =      1 
    LXRCRG1  =      0 
    WXRCRG1  =      0 
    PXRCRG1  =      0 
    LXRCRG2  =      0 
    WXRCRG2  =      0 
    PXRCRG2  =      0 
 

    *** UCB's BSIM4.4.0 new diode model is activated. ***
    *** UCB's Diode Model Parameters ***

    JTSS         =      0 
    JTSSWS       =      0 
    JTSSWGS      =  7e-10 
    JTSD         =      0 
    JTSSWD       =      0 
    JTSSWGD      =  7e-10 
    NJTS         =     20 
    NJTSSW       =     20 
    NJTSSWG      =     20 
    XTSS         =   0.02 
    XTSSWS       =   0.02 
    XTSSWGS      =   0.02 
    XTSD         =   0.02 
    XTSSWD       =   0.02 
    XTSSWGD      =   0.02 
    TNJTS        =      0 
    TNJTSSW      =      0 
    TNJTSSWG     =      0 
    VFBSDOFF     =      0 
    LVFBSDOFF    =      0 
    WVFBSDOFF    =      0 
    PVFBSDOFF    =      0 
    LINTNOI      = -1.8e-08 
    VTSS         =     10 
    VTSD         =     10 
    VTSSWS       =     10 
    VTSSWD       =     10 
    VTSSWGS      =     10 
    VTSSWGD      =     10 
    TTDIOMOD     =      1 
 

    *** UCB's BSIM4.5.0 new model is activated. ***
    UD         =  1e+14 
    UD1        =      0 
    UP         =      0 
    LP         =  1e-08 
    TVOFF      =  0.005 
    TVFBSDOFF  =      0 
    RBPS0      =     50 
    RBPSL      =      0 
    RBPSW      =      0 
    RBPSNF     =      0 
    RBPD0      =     50 
    RBPDL      =      0 
    RBPDW      =      0 
    RBPDNF     =      0 
    RBPBX0     =    100 
    RBPBXL     =      0 
    RBPBXW     =      0 
    RBPBXNF    =      0 
    RBPBY0     =    100 
    RBPBYL     =      0 
    RBPBYW     =      0 
    RBPBYNF    =      0 
    RBSBX0     =    100 
    RBSBY0     =    100 
    RBDBX0     =    100 
    RBDBY0     =    100 
    RBSDBXL    =      0 
    RBSDBXW    =      0 
    RBSDBXNF   =      0 
    RBSDBYL    =      0 
    RBSDBYW    =      0 
    RBSDBYNF   =      0 
    LUD        =      0 
    LUD1       =      0 
    LUP        =      0 
    LLP        =      0 
    LTVOFF     =      0 
    LTVFBSDOFF =      0 
    WUD        =      0 
    WUD1       =      0 
    WUP        =      0 
    WLP        =      0 
    WTVOFF     = 6.4e-10 
    WTVFBSDOFF =      0 
    PUD        =      0 
    PUD1       =      0 
    PUP        =      0 
    PLP        =      0 
    PTVOFF     =      0 
    PTVFBSDOFF =      0 
    WEB        =     10 
    WEC        =      0 
    KVTH0WE    = -0.008 
    K2WE       =      0 
    KU0WE      = -0.004 
    SCREF      =  1e-06 
    WPEMOD     =      1 
    LKVTH0WE   = -6e-10 
    LK2WE      =      0 
    LKU0WE     =      0 
    WKVTH0WE   =  3e-10 
    WK2WE      =      0 
    WKU0WE     = -1e-10 
    PKVTH0WE   =  1e-16 
    PK2WE      =      0 
    PKU0WE     = -8e-17 
 

 
Model Name: nod33ll_ckt  

 BSIM4 Model (Level 54)

    MOBMOD = 0
    BINUNIT = 2
    PARAMCHK = 1
    CAPMOD = 2
    DIOMOD = 2
    RDSMOD = 1
    TRNQSMOD = 0
    ACNQSMOD = 0
    RBODYMOD = 0
    RGATEMOD = 0
    PERMOD = 1
    GEOMOD = 0
    RGEOMOD = 1
    FNOIMOD = 1
    TNOIMOD = 0
    IGCMOD = 0
    IGBMOD = 0
    STIMOD = 1
    VBFWDMOD = 0
    VERSION =    4.5 
    TOXREF = 5.63e-09 
    TOXE = 5.77e-09 
    TOXP = 5.874e-09 
    TOXM = 5.63e-09 
    DTOX = -1.036e-10 
    EPSROX =    3.9 
    CDSC =  5e-05 
    CDSCB = 2.002e-05 
    CDSCD =      0 
    CIT = 0.0007521 
    NFACTOR =  1.414 
    XJ = 1.42e-07 
    VSAT = 9.4e+04 
    A0 =      1 
    AGS = 0.3474 
    A1 =      0 
    A2 =      1 
    AT = 1.38e+04 
    KETA = -0.003203 
    NSUB =  6e+16 
    NDEP = 1.3e+17 
    NSD =  1e+20 
    NGATE = 2.27e+22 
    GAMMA1 =      0 
    GAMMA2 =      0 
    VBX =      0 
    VBM =     -3 
    XT = 1.55e-07 
    K1 = 0.6381 
    KT1 = -0.173 
    KT1L = 3.417e-09 
    KT2 = -0.03838 
    K2 = 0.00301 
    K3 = -2.907 
    K3B =      0 
    LPE0 = 5.562e-08 
    LPEB =      0 
    DVTP0 =      0 
    DVTP1 =      0 
    W0 = -9.093e-08 
    DVT0 = 0.6583 
    DVT1 = 0.1013 
    DVT2 =      0 
    DVT0W = 0.5231 
    DVT1W = 1.18e+06 
    DVT2W =  1.064 
    DROUT =   0.56 
    DSUB =    0.7 
    VTH0 = 0.6275 
    EU =   1.67 
    UA = -9.715e-10 
    UA1 = 2.558e-09 
    UB = 2.378e-18 
    UB1 = -2.418e-18 
    UC = 1.209e-10 
    UC1 = -1e-12 
    U0 = 0.03266 
    UTE = -0.9763 
    VOFF = -0.1843 
    VOFFL = 9.667e-10 
    MINV = -0.6978 
    FPROUT =      0 
    PDITS =      0 
    PDITSD =      0 
    PDITSL =      0 
    DELTA = 0.003263 
    RDSW =    200 
    RDSWMIN =      0 
    RDWMIN =      0 
    RSWMIN =      0 
    RDW =  162.8 
    RSW =  162.8 
    PRWG =      0 
    PRWB =  0.028 
    PRT =      0 
    ETA0 =  0.118 
    ETAB = -0.1213 
    PCLM =  0.348 
    PDIBLC1 = 0.02463 
    PDIBLC2 = 0.0001766 
    PDIBLCB =  0.189 
    PSCBE1 = 4.24e+08 
    PSCBE2 = 3.491e-08 
    PVAG =      1 
    WR =      1 
    DWG = 8.451e-09 
    DWB = 1.096e-13 
    XW = 9.3e-09 
    XWREF = 9.3e-09 
    XL =  4e-08 
    XLREF =  4e-08 
    B0 = 5.953e-08 
    B1 =      0 
    ALPHA0 = 3.657e-08 
    ALPHA1 =  9.581 
    AGIDL = 9.423e-09 
    BGIDL = 2.636e+09 
    CGIDL =  130.1 
    PHIN =   0.15 
    EGIDL =  0.496 
    AIGC = 0.0136 
    BIGC = 0.00171 
    CIGC =  0.075 
    AIGSD = 0.0136 
    BIGSD = 0.00171 
    CIGSD =  0.075 
    AIGBACC = 0.000949 
    BIGBACC = 0.00171 
    CIGBACC =  0.075 
    AIGBINV = 0.0111 
    BIGBINV = 0.000949 
    CIGBINV =  0.006 
    NIGC =      1 
    NIGBINV =      3 
    NIGBACC =      1 
    NTOX =      1 
    EIGBINV =    1.1 
    PIGCD =      1 
    POXEDGE =      1 
    XRCRG1 =     12 
    TNOIA =    1.5 
    TNOIB =    3.5 
    NTNOI =      1 
    XRCRG2 =      1 
    BETA0 =  22.91 
    IJTHDFWD =    0.1 
    IJTHSFWD =    0.1 
    IJTHDREV =    0.1 
    IJTHSREV =    0.1 
    XJBVD =      1 
    XJBVS =      1 
    BVD =   9.45 
    BVS =   9.45 
    VFB =     -1 
    GBMIN =  1e-12 
    RBDB =     50 
    RBPB =     50 
    RBSB =     50 
    RBPS =     50 
    RBPD =     50 
    CGSL = 3.515e-10 
    CGDL = 3.515e-10 
    CKAPPAS =    0.6 
    CKAPPAD =    0.6 
    CF = 5.607e-11 
    CLC =  1e-07 
    CLE =    0.6 
    DWC = -6.5e-08 
    DLC = 8.665e-08 
    DLCIG =      0 
    DWJ =      0 
    VFBCV =     -1 
    ACDE = 0.2864 
    MOIN =  5.099 
    NOFF =  1.954 
    VOFFCV = -0.1431 
    DMCG = 9.9e-08 
    DMCI = 1.62e-07 
    DMDG =      0 
    DMCGT =      0 
    XGW =      0 
    XGL =      0 
    RSHG =    0.1 
    NGCON =      1 
    TCJ = 0.0008075 
    TPB = 0.001579 
    TCJSW = 0.0003398 
    TPBSW = 0.0006488 
    TCJSWG = 0.0005936 
    TPBSWG = 0.0003669 
    SK0 =      0 
    SK1 =      0 
    SK2 =      0 
    SL =  2e-06 
    SW =  2e-06 
    K =      0 
    LCIT = -5.294e-11 
    LVSAT = -0.008723 
    LKT1 = 1.1e-09 
    LKT2 =  4e-09 
    LK2 = -6.36e-09 
    LVTH0 = 5.753e-09 
    LUA = 5.684e-16 
    LUA1 = 5.971e-16 
    LUB = -1.843e-27 
    LUB1 = -5.981e-25 
    LUC = 1.868e-17 
    LUC1 = -2e-17 
    LU0 = 6.35e-09 
    LUTE = -3.976e-08 
    LDELTA = 1.069e-08 
    LPCLM = 6.797e-08 
    LALPHA1 = 7.643e-07 
    LBETA0 = 2.298e-08 
    LAGIDL = 3.57e-15 
    LCGIDL = 1.53e-05 
    LNOFF = 1.3e-07 
    LVOFFCV = -1.515e-08 
    WVSAT = -0.01913 
    WAGS = 4.368e-09 
    WKT1 = -2e-09 
    WVTH0 = 4.311e-09 
    WUA1 = -1.82e-16 
    WUB = -2.145e-25 
    WUB1 = -2e-26 
    WUC = -2.829e-17 
    WU0 = -3.692e-09 
    WUTE = -3.645e-08 
    WALPHA1 = 3.099e-07 
    WAGIDL = 2.905e-14 
    PCIT = -2.632e-18 
    PVSAT = 3.03e-09 
    PAT = -5.735e-11 
    PAGS = 2.156e-13 
    PKT1 = -5.122e-16 
    PK2 = 2.241e-15 
    PK3 = 2.24e-13 
    PPE0 = 5.024e-21 
    PDVT0 = -1.376e-14 
    PVTH0 = -1.177e-14 
    PUA = 4.702e-23 
    PUA1 = -7.425e-24 
    PUB = -2.178e-31 
    PUB1 = 2.525e-31 
    PUC = -1.091e-23 
    PUC1 =  1e-23 
    PU0 = -2.383e-15 
    PUTE = 2.392e-14 
    PETA0 = -3.61e-15 
    PPCLM = 2.4e-14 
    PBETA0 = -5.44e-14 
    PAGIDL = 1.367e-20 
    TNOM =  298.1 
    CGSO = 1.425e-12 
    CGDO = 1.425e-12 
    CGBO =      0 
    XPART =      1 
    RSH =   13.2 
    JSS = 2.308e-07 
    JSWS = 1.013e-13 
    JSWGS = 5.6e-14 
    PBS = 0.5832 
    MJS = 0.2363 
    PBSWS = 0.3922 
    MJSWS = 0.2203 
    CJS = 0.001388 
    CJSWS = 8.451e-11 
    NJS = 0.9807 
    PBSWGS =  0.976 
    MJSWGS =    0.6 
    CJSWGS = 1.434e-10 
    XTIS =      3 
    JSD = 2.308e-07 
    JSWD = 1.013e-13 
    JSWGD = 5.6e-14 
    PBD = 0.5832 
    MJD = 0.2363 
    PBSWD = 0.3922 
    MJSWD = 0.2203 
    CJD = 0.001388 
    CJSWD = 8.451e-11 
    NJD = 0.9807 
    PBSWGD =  0.976 
    MJSWGD =    0.6 
    CJSWGD = 1.434e-10 
    XTID =      3 
    LMLT =      1 
    WMLT =      1 
[...]
    WUP        =      0 
    WLP        =      0 
    WTVOFF     = 6.4e-10 
    WTVFBSDOFF =      0 
    PUD        =      0 
    PUD1       =      0 
    PUP        =      0 
    PLP        =      0 
    PTVOFF     =      0 
    PTVFBSDOFF =      0 
    WEB        =     10 
    WEC        =      0 
    KVTH0WE    = -0.008 
    K2WE       =      0 
    KU0WE      = -0.004 
    SCREF      =  1e-06 
    WPEMOD     =      1 
    LKVTH0WE   = -6e-10 
    LK2WE      =      0 
    LKU0WE     =      0 
    WKVTH0WE   =  3e-10 
    WK2WE      =      0 
    WKU0WE     = -1e-10 
    PKVTH0WE   =  1e-16 
    PK2WE      =      0 
    PKU0WE     = -8e-17 
 

  **info** (/export/home/wllv/shzhang/Bagging/test_bench/test3/circuit/tmp/worker.5/netlist:739) DC voltage reset to initial transient source value              in source        0:vdn                 new dc=  0.0000D+00
  **warning** (/export/home/wllv/shzhang/Bagging/test_bench/test3/circuit/tmp/worker.5/netlist:737) Capacitance of    1.000E+09 for c0 is too high. Please verify capacitance value.
 
      
 **info** set option symb=1 internally to help for convergence.
 *****************************************************************
 ******  option summary
 ******
 runlvl  = 3         bypass  = 2         

 **info** dc convergence failure, 
 resetting dcon option to 1 and retrying

 **info** dc convergence successful
 you can increase the efficiency of the
 operating point calculation by setting dcon= 1
 in the .option statement
1****** HSPICE -- D-2010.03 64-BIT (Feb 23 2010) linux ******                   
 ******  
 * msp generated netlist file

  ******  operating point information tnom=  25.000 temp= -40.000 *****
 ***** operating point status is all       simulation time is     0.     
     node    =voltage       node    =voltage       node    =voltage

 + 0:dn_net  =   0.       0:dnb_net =   0.       0:i10u_net=   1.9067 
 + 0:i5u_net =   1.0975   0:up_net  =   0.       0:upb_net =   0.     
 + 0:vcp_net =   2.2000   0:vdd33_ne=   2.9700   1:nb2     = 799.3746m
 + 1:net0119 = 194.5128m  1:net0124 = 196.2671m  1:net0149 = 799.3746m
 + 1:net0153 = 799.3746m  1:net35   =   2.9065   1:net47   =   2.9068 
 + 1:net58   = 195.9518m  1:net62   = 196.3167m  1:net78   =   0.     
 + 1:net79   =   2.9700   1:net91   =   1.7395   1:net98   =   2.4437 
 + 1:pb1     =   2.1056   1:pb2     =   2.1700   1:quench  =   2.0762 
 + 2:n78     =   1.2549   2:n79     =   6.4240m  2:net18   =   2.9116 


 ****  voltage sources

 subckt                                                              
 element   0:v0        0:vdn       0:vdnb      0:vupb      0:vup     
  volts       2.9700      0.          0.          0.          0.     
  current  -144.0782u     0.          0.          0.          0.     
  power     427.9123u     0.          0.          0.          0.     

 subckt    xi0         xi0       
 element   1:vlower    1:vupper  
  volts       0.          0.     
  current    40.0225u    39.9211u
  power       0.          0.     

     total voltage source power dissipation=  427.9123u       watts



 ***** current sources

 subckt                          
 element   0:i10       0:i5      
  volts       1.0633      1.8725 
  current    10.0000u     5.0000u
  power     -10.6327u    -9.3627u


     total current source power dissipation= -19.9953u       watts


 **** mosfets


 subckt    xi0.xnm31   xi0.xnm30   xi0.xpm29   xi0.xpm22   xi0.xpm11 
 element   3:m1        4:m1        5:m1        6:m1        7:m1      
 model     3:nod33ll_  3:nod33ll_  5:pod33ll_  5:pod33ll_  7:pod33ll_
 region        Cutoff      Cutoff      Cutoff      Cutoff      Linear
  id        293.7437a   288.0176a    -1.2177a    -1.2150a   -10.0076u
  ibs      -1.067e-26  -1.047e-26     0.          0.        162.3171a
  ibd        -1.0975p  -799.3746f   878.3391f   812.1476f   129.2063f
  vgs         0.          0.          0.          0.       -799.9945m
  vds         1.0975    799.3746m  -864.3916m  -799.9945m   -63.4608m
  vbs         0.          0.          0.          0.          0.     
  vth       706.1765m   706.1950m  -699.0134m  -699.0134m  -706.7248m
  vdsat      32.1964m    32.1964m   -33.0563m   -33.0563m  -119.5195m
  vod      -706.1765m  -706.1950m   699.0134m   699.0134m   -93.2698m
  beta        3.2759m     3.2759m   338.1621u   338.1621u     2.3696m
  gam eff   638.0600m   638.0600m   600.0000m   600.0000m   600.0000m
  gm         10.7376f    10.5283f    47.6725a    47.5670a   118.6596u
  gds        17.0251a    21.9511a   4.137e-20   4.229e-20    99.6138u
  gmb         3.8276f     3.7531f    15.0854a    15.0520a    32.0401u
  cdtot       1.8459f     2.0036f     3.7132f     3.7787f    95.3737f
  cgtot       5.3017f     5.3946f    19.1659f    19.1986f   165.1194f
  cstot       3.0657f     3.0657f     5.4666f     5.4666f   157.4320f
  cbtot       5.1132f     5.1780f    20.7824f    20.8151f    67.5496f
  cgs         1.7000f     1.7000f     2.4405f     2.4405f   108.1255f
  cgd       851.6248a   944.5400a     1.3509f     1.3836f    46.6439f



 subckt    xi0.xpm12   xi0.xpm8    xi0.xpm10   xi0.xpm3    xi0.xpm1  
 element   8:m1        9:m1       10:m1       11:m1       12:m1      
 model     8:pod33ll_  9:pod33ll_ 10:pod33ll_ 11:pod33ll_ 11:pod33ll_
 region        Linear    Saturati    Saturati      Linear      Linear
  id        -39.9211u   -39.9211u   -10.0076u   -23.6138u   -16.4087u
  ibs       647.4928a   516.3928f   129.6601f   249.9842f   372.2785f
  ibd       514.5835f     4.3398p     1.6637p   699.8522f   701.6536f
  vgs      -799.9945m  -801.2056m  -800.9308m    -2.2000     -2.0762 
  vds       -63.1860m  -463.0758m  -736.5337m  -460.4613m  -336.6130m
  vbs         0.         63.1860m    63.4608m   243.7383m   367.5866m
  vth      -706.7247m  -719.4222m  -719.4927m  -756.8479m  -783.5052m
  vdsat    -119.5197m  -108.2345m  -107.9818m    -1.2763     -1.1506 
  vod       -93.2698m   -81.7835m   -81.4381m    -1.4432     -1.2926 
  beta        9.4783m     8.3438m     2.0860m    45.1065u    45.8771u
  gam eff   600.0000m   600.0000m   600.0000m   600.0000m   600.0000m
  gm        472.8103u   666.4300u   167.3193u    15.5817u    11.8638u
  gds       400.3935u     1.4541u   271.8017n    41.1262u    41.4039u
  gmb       127.6762u   169.4596u    42.5393u     5.4848u     3.8077u
  cdtot     382.9608f    90.1396f    20.9320f     8.1934f     8.6969f
  cgtot     660.7979f   702.0924f   174.4656f     9.5911f     9.6551f
  cstot     620.8591f   724.9520f   183.3265f     9.2544f     9.2095f
  cbtot     261.1819f   285.4477f    72.8472f     3.0599f     3.0208f
  cgs       432.2310f   565.3552f   141.1233f     5.6981f     5.4672f
  cgd       187.2482f    56.0137f    13.1001f     3.7891f     4.0609f



 subckt    xi0.xpm2    xi0.xpm4    xi0.xnm5    xi0.xnm6    xi0.xnm7  
 element  13:m1       14:m1       15:m1       16:m1       17:m1      
 model    11:pod33ll_ 11:pod33ll_ 15:nod33ll_ 15:nod33ll_ 15:nod33ll_
 region        Linear      Linear      Cutoff      Cutoff      Cutoff
  id        -23.5731u   -16.3480u     0.          0.          0.     
  ibs         5.8793f     4.0773f    -1.7395p    -2.2000p    -1.7395p
  ibd       362.2970f   240.0115f    -2.2000p    -2.4437p    -2.0762p
  vgs        -2.4437     -2.4437     -1.7395     -2.2000     -1.7395 
  vds      -367.5866m  -243.7383m   460.4613m   243.7383m   336.6130m
  vbs         0.          0.         -1.7395     -2.2000     -1.7395 
  vth      -697.4796m  -697.0048m     1.1012      1.1845      1.1012 
  vdsat      -1.5336     -1.5356     34.4607m    34.9142m    34.4607m
  vod        -1.7463     -1.7467     -2.8408     -3.3845     -2.8408 
  beta       43.6254u    43.6149u   415.3212u   413.6582u   415.3212u
  gam eff   600.0000m   600.0000m   638.0600m   638.0600m   638.0600m
  gm         10.8701u     7.0471u     0.          0.          0.     
  gds        57.2204u    63.3642u     0.          0.          0.     
  gmb         5.3192u     3.6125u     0.          0.          0.     
  cdtot       9.5267f    10.1195f   734.8488a   715.6390a   745.6041a
  cgtot       9.7756f     9.8290f     3.0827f     3.0578f     3.0869f
  cstot       9.8413f     9.9465f   779.1116a   734.8488a   779.1116a
  cbtot       3.3944f     3.5132f     3.5945f     3.5563f     3.6011f
  cgs         5.4828f     5.2823f   259.7299a   241.9178a   259.7299a
  cgd         4.2802f     4.5370f   241.5738a   234.2400a   245.7722a



 subckt    xi0.xnm9    xi0.xnm14   xi0.xnm18   xi0.xnm21   xi0.xnm23 
 element  18:m1       19:m1       20:m1       21:m1       22:m1      
 model    15:nod33ll_ 19:nod33ll_ 20:nod33ll_ 21:nod33ll_ 19:nod33ll_
 region        Cutoff    Saturati    Saturati    Saturati    Saturati
  id          0.         10.0070u    40.0225u     5.0034u    10.0000u
  ibs        -2.0762p  -393.6992f    -1.5719p  -196.8000f  -390.0905f
  ibd        -2.4437p    -4.3389p   -13.9119p    -2.1050p    -1.5977p
  vgs        -2.0762    901.1474m   901.5123m   901.1970m   902.9513m
  vds       367.5866m     1.9737      1.5436      1.9093    604.8618m
  vbs        -2.0762   -196.3167m  -195.9518m  -196.2671m  -194.5128m
  vth         1.1628    745.4855m   745.3783m   745.4709m   744.9555m
  vdsat      34.8005m   160.7979m   161.0977m   160.8386m   162.2817m
  vod        -3.2389    155.6620m   156.1340m   155.7261m   157.9959m
  beta      414.0751u   701.4093u     2.8056m   350.7032u   701.3048u
  gam eff   638.0600m   638.0600m   638.0600m   638.0600m   638.0600m
  gm          0.         90.0060u   359.5091u    44.9946u    89.2304u
  gds         0.         90.8122n   457.5149n    46.7950n   334.8358n
  gmb         0.         25.8638u   103.3136u    12.9296u    25.6519u
  cdtot     715.6390a     1.5438f     6.8237f     1.1105f     2.5267f
  cgtot       3.0619f    18.7773f    75.5763f     9.3951f    19.5468f
  cstot     745.6041a    21.9279f    85.0984f    10.9642f    21.9326f
  cbtot       3.5628f     8.4577f    31.4014f     4.5612f     8.6719f
  cgs       246.1359a    16.9876f    67.9652f     8.4940f    17.0156f
  cgd       234.2400a   620.6434a     2.9388f   316.6458a     1.3725f



 subckt    xi0.xnm15   xi0.xnm17   xi0.xnm20   xi0.xnm24   xi0.xnm33 
 element  23:m1       24:m1       25:m1       26:m1       27:m1      
 model    23:nod33ll_ 24:nod33ll_ 25:nod33ll_ 23:nod33ll_ 27:nod33ll_
 region      Saturati    Saturati    Saturati    Saturati      Linear
  id         10.0070u    40.0225u     5.0034u    10.0000u   -16.2781f
  ibs      -629.4877a    -2.5176f  -314.7379a  -629.0462a  -799.3746f
  ibd      -392.0004f    -1.5651p  -195.9507f  -388.3931f  -799.3746f
  vgs       799.3746m   799.3746m   799.3746m   799.3746m     1.1074 
  vds       196.3167m   195.9518m   196.2671m   194.5128m  -327.2279p
  vbs         0.          0.          0.          0.       -799.3746m
  vth       689.5725m   689.5725m   689.5725m   689.5724m   901.7801m
  vdsat     130.5499m   130.5499m   130.5499m   130.5500m   203.0543m
  vod       109.8021m   109.8021m   109.8021m   109.8021m   205.5792m
  beta        1.1715m     4.6861m   585.7666u     1.1715m   246.7478u
  gam eff   638.0600m   638.0600m   638.0600m   638.0600m   638.0600m
  gm        102.5362u   410.0332u    51.2662u   102.3959u    70.8736f
  gds         3.8401u    15.4687u     1.9219u     3.9768u    50.2718u
  gmb        32.4394u   129.7230u    16.2191u    32.3961u    17.0847f
  cdtot       7.3678f    29.5683f     4.0900f     7.4897f    17.0324f
  cgtot      33.4087f   133.6613f    16.7048f    33.4420f    17.7401f
  cstot      35.5310f   139.3218f    17.7656f    35.5371f    18.3689f
  cbtot      14.0070f    53.2265f     7.4080f    14.0141f     4.8088f
  cgs        27.6775f   110.7037f    13.8387f    27.6694f     8.6555f
  cgd         3.7771f    15.1494f     1.8893f     3.8284f     9.2002f



 subckt    xi0.xnm32   xi0.xnm27   xi0.xnm13   xi0.xnm25   xi0.xpm19 
 element  28:m1       29:m1       30:m1       31:m1       32:m1      
 model    27:nod33ll_ 29:nod33ll_ 30:nod33ll_ 31:nod33ll_ 32:pod33ll_
 region        Linear      Linear    Saturati    Saturati    Saturati
  id        -32.2667f     0.          5.0000u    10.0000u    -5.0036u
  ibs      -799.3746f     0.       -654.0579a    -1.6000p   174.4890a
  ibd      -799.3746f     0.         -1.0968p    -3.8122p   880.2006f
  vgs         1.1074    799.3746m     1.0975      1.1074   -864.3916m
  vds      -648.6385p     0.          1.0975      1.1074   -864.3916m
  vbs      -799.3746m     0.          0.       -799.3746m     0.     
  vth       901.7801m   683.1561m   674.2559m   900.4028m  -697.7423m
  vdsat     203.0543m   134.6639m   352.8697m   203.0437m  -168.9578m
  vod       205.5792m   116.2185m   423.2082m   206.9565m  -166.6493m
  beta      246.7478u   563.2218u    66.4182u   448.1548u   349.5271u
  gam eff   638.0600m   638.0600m   638.0600m   638.0600m   600.0000m
  gm        140.4873f     0.         22.2726u    77.1613u    52.6985u
  gds        50.2718u     0.         24.8770n   125.1325n    86.2083n
  gmb        33.8657f     0.          6.6832u    18.0360u    13.8064u
  cdtot      17.0324f   466.8654f     1.0212f     2.0088f     5.2186f
  cgtot      17.7401f   449.6696f    31.9021f    21.3376f    52.0103f
  cstot      18.3689f   453.8798f    36.3782f    23.4719f    56.2812f
  cbtot       4.8088f   158.2233f    11.4618f     7.8232f    21.0732f
  cgs         8.6555f   233.1581f    29.7079f    19.2043f    44.3335f
  cgd         9.2002f   216.4394f   520.9240a     1.0612f     2.7778f



 subckt    xi0.xnm26   xi0.xpm28   xi0.xnm34   xi0.xi40.x  xi0.xi40.x
 element  33:m1       34:m1       35:m1       36:m1       37:m1      
 model    33:nod33ll_ 34:pod33ll_ 35:nod33ll_ 36:pod33ll_ 36:pod33ll_
 region        Linear      Linear      Linear    Saturati    Saturati
  id          0.          0.          0.        -16.6440u    -1.8674u
  ibs         0.          0.          0.        618.7820a    69.4241a
  ibd         0.          0.          0.          3.3976p    12.8982p
  vgs         1.0975   -799.9945m     2.9700   -835.4560m  -711.6078m
  vds         0.          0.          0.       -835.4560m    -2.9052 
  vbs         0.          0.          0.          0.          0.     
  vth       682.2960m  -685.0595m   684.3010m  -701.6871m  -701.6506m
  vdsat     350.4507m  -115.5530m     1.9650   -146.8579m   -61.9071m
  vod       415.1681m  -114.9350m     2.2857   -133.7690m    -9.9572m
  beta      293.0841u   100.2967u     1.5687m     1.6440m     1.6637m
  gam eff   638.0600m   600.0000m   638.0600m   600.0000m   600.0000m
  gm          0.          0.          0.        206.9643u    45.7729u
  gds         0.          0.          0.        377.9842n    33.6596n
  gmb         0.          0.          0.         54.6179u    12.1257u
  cdtot     236.2500f   283.6147f     1.0132p    21.1549f    12.4476f
  cgtot     221.5391f   278.1666f   936.2242f   156.4648f   122.4071f
  cstot     226.2297f   270.7084f   962.0315f   174.7058f   135.2088f
  cbtot      75.0466f    93.8283f   300.2851f    74.7284f    72.0686f
  cgs       115.8822f   139.5140f   498.3755f   130.4284f    94.1281f
  cgd       109.0867f   127.8649f   465.3791f    10.4189f     4.4129f



 subckt    xi0.xi40.x  xi0.xi40.x  xi0.xi40.x  xi0.xi40.x  xi0.xi40.x
 element  38:m1       39:m1       40:m1       41:m1       42:m1      
 model    38:nod33ll_ 39:nod33ll_ 40:pod33ll_ 41:pod33ll_ 42:pod33ll_
 region      Saturati      Linear      Linear    Saturati      Linear
  id         23.8082u     1.8682u     0.        -55.6338u   -18.5121u
  ibs        -1.9019f  -149.2319a  -4.476e-28   958.8283a   319.0500a
  ibd        -4.1503p   -38.3949f  -4.476e-28    18.5840p   296.9106f
  vgs         1.2549      1.2549   -799.9945m  -799.9945m  -799.9945m
  vds         2.0762      6.4240m     0.         -1.7151    -58.3923m
  vbs         0.          0.          0.          0.          0.     
  vth       677.9675m   677.6653m  -696.7334m  -701.8283m  -701.8198m
  vdsat     475.8349m   476.7648m  -118.3527m  -118.8595m  -118.8895m
  vod       576.8919m   577.1941m  -103.2611m   -98.1662m   -98.1747m
  beta      172.2858u   516.8054u   304.4229u     8.8541m     4.4270m
  gam eff   638.0600m   638.0600m   600.0000m   600.0000m   600.0000m
  gm         78.8231u     3.1094u     0.        844.0932u   210.2834u
  gds        50.0564n   291.0495u     0.        861.7914n   211.2603u
  gmb        23.4393u     1.0395u     0.        223.2281u    56.7084u
  cdtot       1.8460f   521.0813f    64.8164f    61.4444f   288.4471f
  cgtot     126.1069f   492.0766f    60.8204f   802.3890f   483.1754f
  cstot     145.7530f   499.9797f    61.5790f   875.5964f   454.5053f
  cbtot      43.8426f   156.9719f    27.6754f   335.0092f   185.3068f
  cgs       119.5717f   259.3818f    29.9529f   679.3909f   316.2341f
  cgd       889.4037a   242.0131f    28.4942f    30.7334f   137.4227f



 subckt    xi0.xi40.x
 element  43:m1      
 model    43:pod33ll_
 region      Saturati
  id        -55.6338u
  ibs         1.5356f
  ibd         2.5929p
  vgs        -1.2484 
  vds        -1.2549 
  vbs         0.     
  vth      -689.7061m
  vdsat    -470.6457m
  vod      -558.7293m
  beta      421.2270u
  gam eff   600.0000m
  gm        187.5177u
  gds       364.0351n
  gmb        47.0186u
  cdtot      12.4373f
  cgtot     267.2741f
  cstot     293.6791f
  cbtot      89.8662f
  cgs       245.0368f
  cgd         7.0389f



 ******  
 * msp generated netlist file

  ******  transient analysis tnom=  25.000 temp= -40.000 *****
   up_imin= -3.6428E-04    at=  4.0010E-08
               from=  2.0000E-08    to=  1.0000E-07
   up_iavg=  4.0057E-05  from=  2.0000E-08     to=  1.8000E-07
   up_imax=  4.0306E-04    at=  4.0020E-08
               from=  2.0000E-08    to=  1.0000E-07
   lo_imin=  3.5688E-05    at=  2.0020E-08
               from=  2.0000E-08    to=  1.0000E-07
   lo_iavg=  4.0023E-05  from=  2.0000E-08     to=  1.8000E-07
   lo_imax=  4.2422E-05    at=  3.0005E-08
               from=  2.0000E-08    to=  1.0000E-07

          ***** job concluded
1****** HSPICE -- D-2010.03 64-BIT (Feb 23 2010) linux ******                   
 ******  
 * msp generated netlist file

  ******  job statistics summary tnom=  25.000 temp= -40.000 *****
 
 
 ******  Machine Information  ******
 CPU:
 model name	: Intel(R) Xeon(R) CPU E7- 8837  @ 2.67GHz
 cpu MHz	: 1064.000
 
 OS:
 Linux version 2.6.32-220.el6.x86_64 (mockbuild@x86-004.build.bos.redhat.com) (g
 cc version 4.4.5 20110214 (Red Hat 4.4.5-6) (GCC) ) #1 SMP Wed Nov 9 08:03:13 E
 ST 2011


  ******  HSPICE Threads Information  ******

  Command Line Threads Count                  :     1
  Available CPU Count                         :    64
  Actual Model Evaluation(Load) Threads Count :     1
  Actual Solver Threads Count                 :     1


  ******  Circuit Statistics  ******
  # nodes       =     110 # elements   =      51
  # resistors   =       0 # capacitors =       1 # inductors   =       0
  # mutual_inds =       0 # vccs       =       0 # vcvs        =       0
  # cccs        =       0 # ccvs       =       0 # volt_srcs   =       7
  # curr_srcs   =       2 # diodes     =       0 # bjts        =       0
  # jfets       =       0 # mosfets    =      41 # U elements  =       0
  # T elements  =       0 # W elements =       0 # B elements  =       0
  # S elements  =       0 # P elements =       0 # va device   =       0


  ******  Runtime Statistics (seconds)  ******

  analysis           time    # points   tot. iter  conv.iter
  op point           0.06           1         295
  transient          0.26      100001        1485         590 rev=        19
  readin             0.11
  errchk             0.05
  setup              0.00
  output             0.00


           total memory used                878 kbytes
           total cpu time            0.49 seconds
           total elapsed time        0.53 seconds
           job started at     23:13:08 08/31/2018
           job ended   at     23:13:09 08/31/2018


 lic: Release hspice token(s) 
