$DATA1 SOURCE='HSPICE' VERSION='D-2010.03 64-BIT'
.TITLE '* msp generated netlist file'
 up_imin          up_iavg          up_imax          lo_imin           
 lo_iavg          lo_imax          temper           alter#            
 -3.643e-04        4.006e-05        4.031e-04        3.569e-05        
  4.002e-05        4.242e-05        -40.0000           1.0000         
