 ****** HSPICE -- D-2010.03 64-BIT (Feb 23 2010) linux ******                   
  Copyright (C) 2010 Synopsys, Inc. All Rights Reserved.                        
  Unpublished-rights reserved under US copyright laws.
  This program is protected by law and is subject to the 
  terms and conditions of the license agreement from Synopsys.
  Use of this program is your acceptance to be bound by the 
  license agreement. HSPICE is the trademark of Synopsys, Inc.
  Input File: /export/home/wllv/shzhang/Multi-fidelity/code/NAR_BO/test_bench/pu
 lic:  
 lic: FLEXlm: v8.5b 
 lic: USER:   wllv                 HOSTNAME: console 
 lic: HOSTID: 3440b5b102f4         PID:      15610 
 lic: Using FLEXlm license file: 
 lic: /export/home/wllv/mysoft/hspice/license.dat 
 lic: Checkout 1 hspice 
 lic: License/Maintenance for hspice will expire on 31-dec-2020/2007.9 
 lic: NODE LOCKED license on hostid 3440b5b102f4 
 lic:   
  **warning** (/export/home/svnhome/process/smic.40//hspice/v1p4/l0040ll_v1p4_1r.mdl:1050) Model nod33ll_ckt device geometries will not be checked against the limits set by lmin, lmax, wmin and wmax. To enable this check, add a period(.) to the model name(i.e. enable model selector).
1****** HSPICE -- D-2010.03 64-BIT (Feb 23 2010) linux ******                   
 ******  
 * msp generated netlist file

  ******  circuit name directory
 circuit number to circuit name directory
   number circuitname                     definition         multiplier
        0 main circuit
        1 xi0.                            pll_chargepump     1.00 
        2 xi0.xi40.                       pll_quench_v33     1.00 
        3 xi0.xnm31.                      nod33ll_ckt        1.00 
        4 xi0.xnm30.                      nod33ll_ckt        1.00 
        5 xi0.xpm29.                      pod33ll_ckt        1.00 
        6 xi0.xpm22.                      pod33ll_ckt        1.00 
        7 xi0.xpm11.                      pod33ll_ckt        2.00 
        8 xi0.xpm12.                      pod33ll_ckt        8.00 
        9 xi0.xpm8.                       pod33ll_ckt        8.00 
       10 xi0.xpm10.                      pod33ll_ckt        2.00 
       11 xi0.xpm3.                       pod33ll_ckt        1.00 
       12 xi0.xpm1.                       pod33ll_ckt        1.00 
       13 xi0.xpm2.                       pod33ll_ckt        1.00 
       14 xi0.xpm4.                       pod33ll_ckt        1.00 
       15 xi0.xnm5.                       nod33ll_ckt        1.00 
       16 xi0.xnm6.                       nod33ll_ckt        1.00 
       17 xi0.xnm7.                       nod33ll_ckt        1.00 
       18 xi0.xnm9.                       nod33ll_ckt        1.00 
       19 xi0.xnm14.                      nod33ll_ckt        2.00 
       20 xi0.xnm18.                      nod33ll_ckt        8.00 
       21 xi0.xnm21.                      nod33ll_ckt        1.00 
       22 xi0.xnm23.                      nod33ll_ckt        2.00 
       23 xi0.xnm15.                      nod33ll_ckt        2.00 
       24 xi0.xnm17.                      nod33ll_ckt        8.00 
       25 xi0.xnm20.                      nod33ll_ckt        1.00 
       26 xi0.xnm24.                      nod33ll_ckt        2.00 
       27 xi0.xnm33.                      nod33ll_ckt        1.00 
       28 xi0.xnm32.                      nod33ll_ckt        1.00 
       29 xi0.xnm27.                      nod33ll_ckt        1.00 
       30 xi0.xnm13.                      nod33ll_ckt        1.00 
       31 xi0.xnm25.                      nod33ll_ckt        2.00 
       32 xi0.xpm19.                      pod33ll_ckt        1.00 
       33 xi0.xnm26.                      nod33ll_ckt        1.00 
       34 xi0.xpm28.                      pod33ll_ckt        1.00 
       35 xi0.xnm34.                      nod33ll_ckt        4.00 
       36 xi0.xi40.xpm11.                 pod33ll_ckt        4.00 
       37 xi0.xi40.xpm10.                 pod33ll_ckt        4.00 
       38 xi0.xi40.xnm1.                  nod33ll_ckt        2.00 
       39 xi0.xi40.xnm0.                  nod33ll_ckt        6.00 
       40 xi0.xi40.xpm12.                 pod33ll_ckt        1.00 
       41 xi0.xi40.xpm7.                  pod33ll_ckt       10.00 
       42 xi0.xi40.xpm8.                  pod33ll_ckt        5.00 
       43 xi0.xi40.xpm9.                  pod33ll_ckt        2.00 
1****** HSPICE -- D-2010.03 64-BIT (Feb 23 2010) linux ******                   
 ******  
 * msp generated netlist file

  ******  mos   model parameters tnom=  25.000 temp=  25.000 *****
 
Model Name: nod33ll_ckt  

 BSIM4 Model (Level 54)

    MOBMOD = 0
    BINUNIT = 2
    PARAMCHK = 1
    CAPMOD = 2
    DIOMOD = 2
    RDSMOD = 1
    TRNQSMOD = 0
    ACNQSMOD = 0
    RBODYMOD = 0
    RGATEMOD = 0
    PERMOD = 1
    GEOMOD = 0
    RGEOMOD = 1
    FNOIMOD = 1
    TNOIMOD = 0
    IGCMOD = 0
    IGBMOD = 0
    STIMOD = 1
    VBFWDMOD = 0
    VERSION =    4.5 
    TOXREF = 5.63e-09 
    TOXE = 5.77e-09 
    TOXP = 5.874e-09 
    TOXM = 5.63e-09 
    DTOX = -1.036e-10 
    EPSROX =    3.9 
    CDSC =  5e-05 
    CDSCB = 2.002e-05 
    CDSCD =      0 
    CIT = 0.0007521 
    NFACTOR =  1.414 
    XJ = 1.42e-07 
    VSAT = 9.4e+04 
    A0 =      1 
    AGS = 0.3474 
    A1 =      0 
    A2 =      1 
    AT = 1.38e+04 
    KETA = -0.003203 
    NSUB =  6e+16 
    NDEP = 1.3e+17 
    NSD =  1e+20 
    NGATE = 2.27e+22 
    GAMMA1 =      0 
    GAMMA2 =      0 
    VBX =      0 
    VBM =     -3 
    XT = 1.55e-07 
    K1 = 0.6381 
    KT1 = -0.173 
    KT1L = 3.417e-09 
    KT2 = -0.03838 
    K2 = 0.00301 
    K3 = -2.907 
    K3B =      0 
    LPE0 = 5.562e-08 
    LPEB =      0 
    DVTP0 =      0 
    DVTP1 =      0 
    W0 = -9.093e-08 
    DVT0 = 0.6583 
    DVT1 = 0.1013 
    DVT2 =      0 
    DVT0W = 0.5231 
    DVT1W = 1.18e+06 
    DVT2W =  1.064 
    DROUT =   0.56 
    DSUB =    0.7 
    VTH0 = 0.6275 
    EU =   1.67 
    UA = -9.715e-10 
    UA1 = 2.558e-09 
    UB = 2.378e-18 
    UB1 = -2.418e-18 
    UC = 1.209e-10 
    UC1 = -1e-12 
    U0 = 0.03266 
    UTE = -0.9763 
    VOFF = -0.1843 
    VOFFL = 9.667e-10 
    MINV = -0.6978 
    FPROUT =      0 
    PDITS =      0 
    PDITSD =      0 
    PDITSL =      0 
    DELTA = 0.003263 
    RDSW =    200 
    RDSWMIN =      0 
    RDWMIN =      0 
    RSWMIN =      0 
    RDW =  162.8 
    RSW =  162.8 
    PRWG =      0 
    PRWB =  0.028 
    PRT =      0 
    ETA0 =  0.118 
    ETAB = -0.1213 
    PCLM =  0.348 
    PDIBLC1 = 0.02463 
    PDIBLC2 = 0.0001766 
    PDIBLCB =  0.189 
    PSCBE1 = 4.24e+08 
    PSCBE2 = 3.491e-08 
    PVAG =      1 
    WR =      1 
    DWG = 8.451e-09 
    DWB = 1.096e-13 
    XW = 9.3e-09 
    XWREF = 9.3e-09 
    XL =  4e-08 
    XLREF =  4e-08 
    B0 = 5.953e-08 
    B1 =      0 
    ALPHA0 = 3.657e-08 
    ALPHA1 =  9.581 
    AGIDL = 9.423e-09 
    BGIDL = 2.636e+09 
    CGIDL =  130.1 
    PHIN =   0.15 
    EGIDL =  0.496 
    AIGC = 0.0136 
    BIGC = 0.00171 
    CIGC =  0.075 
    AIGSD = 0.0136 
    BIGSD = 0.00171 
    CIGSD =  0.075 
    AIGBACC = 0.000949 
    BIGBACC = 0.00171 
    CIGBACC =  0.075 
    AIGBINV = 0.0111 
    BIGBINV = 0.000949 
    CIGBINV =  0.006 
    NIGC =      1 
    NIGBINV =      3 
    NIGBACC =      1 
    NTOX =      1 
    EIGBINV =    1.1 
    PIGCD =      1 
    POXEDGE =      1 
    XRCRG1 =     12 
    TNOIA =    1.5 
    TNOIB =    3.5 
    NTNOI =      1 
    XRCRG2 =      1 
    BETA0 =  22.91 
    IJTHDFWD =    0.1 
    IJTHSFWD =    0.1 
    IJTHDREV =    0.1 
    IJTHSREV =    0.1 
    XJBVD =      1 
    XJBVS =      1 
    BVD =   9.45 
    BVS =   9.45 
    VFB =     -1 
    GBMIN =  1e-12 
    RBDB =     50 
    RBPB =     50 
    RBSB =     50 
    RBPS =     50 
    RBPD =     50 
    CGSL = 3.515e-10 
    CGDL = 3.515e-10 
    CKAPPAS =    0.6 
    CKAPPAD =    0.6 
    CF = 5.607e-11 
    CLC =  1e-07 
    CLE =    0.6 
    DWC = -6.5e-08 
    DLC = 8.665e-08 
    DLCIG =      0 
    DWJ =      0 
    VFBCV =     -1 
    ACDE = 0.2864 
    MOIN =  5.099 
    NOFF =  1.954 
    VOFFCV = -0.1431 
    DMCG = 9.9e-08 
    DMCI = 1.62e-07 
    DMDG =      0 
    DMCGT =      0 
    XGW =      0 
    XGL =      0 
    RSHG =    0.1 
    NGCON =      1 
    TCJ = 0.0008075 
    TPB = 0.001579 
    TCJSW = 0.0003398 
    TPBSW = 0.0006488 
    TCJSWG = 0.0005936 
    TPBSWG = 0.0003669 
    SK0 =      0 
    SK1 =      0 
    SK2 =      0 
    SL =  2e-06 
    SW =  2e-06 
    K =      0 
    LCIT = -5.294e-11 
    LVSAT = -0.008723 
    LKT1 = 1.1e-09 
    LKT2 =  4e-09 
    LK2 = -6.36e-09 
    LVTH0 = 5.753e-09 
    LUA = 5.684e-16 
    LUA1 = 5.971e-16 
    LUB = -1.843e-27 
    LUB1 = -5.981e-25 
    LUC = 1.868e-17 
    LUC1 = -2e-17 
    LU0 = 6.35e-09 
    LUTE = -3.976e-08 
    LDELTA = 1.069e-08 
    LPCLM = 6.797e-08 
    LALPHA1 = 7.643e-07 
    LBETA0 = 2.298e-08 
    LAGIDL = 3.57e-15 
    LCGIDL = 1.53e-05 
    LNOFF = 1.3e-07 
    LVOFFCV = -1.515e-08 
    WVSAT = -0.01913 
    WAGS = 4.368e-09 
    WKT1 = -2e-09 
    WVTH0 = 4.311e-09 
    WUA1 = -1.82e-16 
    WUB = -2.145e-25 
    WUB1 = -2e-26 
    WUC = -2.829e-17 
    WU0 = -3.692e-09 
    WUTE = -3.645e-08 
    WALPHA1 = 3.099e-07 
    WAGIDL = 2.905e-14 
    PCIT = -2.632e-18 
    PVSAT = 3.03e-09 
    PAT = -5.735e-11 
    PAGS = 2.156e-13 
    PKT1 = -5.122e-16 
    PK2 = 2.241e-15 
    PK3 = 2.24e-13 
    PPE0 = 5.024e-21 
    PDVT0 = -1.376e-14 
    PVTH0 = -1.177e-14 
    PUA = 4.702e-23 
    PUA1 = -7.425e-24 
    PUB = -2.178e-31 
    PUB1 = 2.525e-31 
    PUC = -1.091e-23 
    PUC1 =  1e-23 
    PU0 = -2.383e-15 
    PUTE = 2.392e-14 
    PETA0 = -3.61e-15 
    PPCLM = 2.4e-14 
    PBETA0 = -5.44e-14 
    PAGIDL = 1.367e-20 
    TNOM =  298.1 
    CGSO = 1.425e-12 
    CGDO = 1.425e-12 
    CGBO =      0 
    XPART =      1 
    RSH =   13.2 
    JSS = 2.308e-07 
    JSWS = 1.013e-13 
    JSWGS = 5.6e-14 
    PBS = 0.5832 
    MJS = 0.2363 
    PBSWS = 0.3922 
    MJSWS = 0.2203 
    CJS = 0.001388 
    CJSWS = 8.451e-11 
    NJS = 0.9807 
    PBSWGS =  0.976 
    MJSWGS =    0.6 
    CJSWGS = 1.434e-10 
    XTIS =      3 
    JSD = 2.308e-07 
    JSWD = 1.013e-13 
    JSWGD = 5.6e-14 
    PBD = 0.5832 
    MJD = 0.2363 
    PBSWD = 0.3922 
    MJSWD = 0.2203 
    CJD = 0.001388 
    CJSWD = 8.451e-11 
    NJD = 0.9807 
    PBSWGD =  0.976 
    MJSWGD =    0.6 
    CJSWGD = 1.434e-10 
    XTID =      3 
    LMLT =      1 
    WMLT =      1 
    LINT = 3.171e-08 
    LL = 7.773e-15 
    LLC =      0 
    LLN =      1 
    LW = 3.807e-15 
    LWC =      0 
    LWN =      1 
    LWL = 1.323e-22 
    LWLC =      0 
    LMIN = 4.95e-07 
    LMAX = 0.0001 
    WINT = -2.832e-08 
    WL = -1.858e-14 
    WLC =      0 
    WLN =      1 
    WW = -6.716e-15 
    WWC =      0 
    WWN =      1 
    WWL = 2.396e-21 
    WWLC =      0 
    WMIN = 2.88e-07 
    WMAX = 0.0001 
    NOIA = 2.064e+41 
    NOIB = 7.403e+24 
    NOIC = 4.862e+07 
    EM = 3.308e+11 
    EF = 0.9576 
    AF =      1 
    KF =      0 
    TRS =      0 
    TRD =      0 
    TEMPMOD  =      0 
    LAMBDA   =      0 
    VTL      =  2e+05 m/s
    LC       =  5e-09 
    XN       =      3 
    LLAMBDA  =      0 
    LVTL     =      0 
    LXN      =      0 
    WLAMBDA  =      0 
    WVTL     =      0 
    WXN      =      0 
    PLAMBDA  =      0 
    PVTL     =      0 
    PXN      =      0 
    RNOIA    =  0.577 
    RNOIB    = 0.5164 
    SAREF(SA0) = 2.61e-07 m
    SBREF(SB0) = 2.61e-07 m
    WLOD     =      0 m
    KU0      = -5.71e-08 1/m
    KVSAT    =    0.4 
    KVTH0    = 2.48e-09 m
    TKU0     =      0 
    LLODKU0  =      1 
    WLODKU0  =      1 
    LLODVTH  =      1 
    WLODVTH  =      1 
    LKU0     = 1.325e-06 
    WKU0     =  1e-08 
    PKU0     = -5.7e-14 
    LKVTH0   = -1.301e-07 
    WKVTH0   = -1.5e-07 
    PKVTH0   = 6.3e-14 
    STK2     =      0 
    LODK2    =      1 
    STETA0   = -3.339e-09 
    LODETA0  =      1 
    LXRCRG1  =      0 
    WXRCRG1  =      0 
    PXRCRG1  =      0 
    LXRCRG2  =      0 
    WXRCRG2  =      0 
    PXRCRG2  =      0 
 

    *** UCB's BSIM4.4.0 new diode model is activated. ***
    *** UCB's Diode Model Parameters ***

    JTSS         =      0 
    JTSSWS       =      0 
    JTSSWGS      = 1.2e-18 
    JTSD         =      0 
    JTSSWD       =      0 
    JTSSWGD      = 1.2e-18 
    NJTS         =     20 
    NJTSSW       =     20 
    NJTSSWG      =     20 
    XTSS         =   0.02 
    XTSSWS       =   0.02 
    XTSSWGS      =   0.02 
    XTSD         =   0.02 
    XTSSWD       =   0.02 
    XTSSWGD      =   0.02 
    TNJTS        =      0 
    TNJTSSW      =      0 
    TNJTSSWG     =      0 
    VFBSDOFF     =      0 
    LVFBSDOFF    =      0 
    WVFBSDOFF    =      0 
    PVFBSDOFF    =      0 
    LINTNOI      = -3.905e-08 
    VTSS         =     10 
    VTSD         =     10 
    VTSSWS       =     10 
    VTSSWD       =     10 
    VTSSWGS      =     10 
    VTSSWGD      =     10 
    TTDIOMOD     =      1 
 

    *** UCB's BSIM4.5.0 new model is activated. ***
    UD         =  1e+14 
    UD1        =      0 
    UP         =      0 
    LP         =  1e-08 
    TVOFF      =  0.003 
    TVFBSDOFF  =      0 
    RBPS0      =     50 
    RBPSL      =      0 
    RBPSW      =      0 
    RBPSNF     =      0 
    RBPD0      =     50 
    RBPDL      =      0 
    RBPDW      =      0 
    RBPDNF     =      0 
    RBPBX0     =    100 
    RBPBXL     =      0 
    RBPBXW     =      0 
    RBPBXNF    =      0 
    RBPBY0     =    100 
    RBPBYL     =      0 
    RBPBYW     =      0 
    RBPBYNF    =      0 
    RBSBX0     =    100 
    RBSBY0     =    100 
    RBDBX0     =    100 
    RBDBY0     =    100 
    RBSDBXL    =      0 
    RBSDBXW    =      0 
    RBSDBXNF   =      0 
    RBSDBYL    =      0 
    RBSDBYW    =      0 
    RBSDBYNF   =      0 
    LUD        =      0 
    LUD1       =      0 
    LUP        =      0 
    LLP        =      0 
    LTVOFF     = -4.4e-11 
    LTVFBSDOFF =      0 
    WUD        =      0 
    WUD1       =      0 
    WUP        =      0 
    WLP        =      0 
    WTVOFF     =      0 
    WTVFBSDOFF =      0 
    PUD        =      0 
    PUD1       =      0 
    PUP        =      0 
    PLP        =      0 
    PTVOFF     =      0 
    PTVFBSDOFF =      0 
    WEB        =   -460 
    WEC        =   -300 
    KVTH0WE    = 0.01789 
    K2WE       =      0 
    KU0WE      = -0.01846 
    SCREF      =  1e-06 
    WPEMOD     =      1 
    LKVTH0WE   = 1.579e-09 
    LK2WE      =      0 
    LKU0WE     =      0 
    WKVTH0WE   =  1e-09 
    WK2WE      =      0 
    WKU0WE     = 4.324e-09 
    PKVTH0WE   = -4.409e-16 
    PK2WE      =      0 
    PKU0WE     = -6.528e-16 
 

 
Model Name: pod33ll_ckt  

 BSIM4 Model (Level 54)

    MOBMOD = 0
    BINUNIT = 2
    PARAMCHK = 1
    CAPMOD = 2
    DIOMOD = 2
    RDSMOD = 1
    TRNQSMOD = 0
    ACNQSMOD = 0
    RBODYMOD = 0
    RGATEMOD = 0
    PERMOD = 1
    GEOMOD = 0
    RGEOMOD = 1
    FNOIMOD = 1
    TNOIMOD = 0
    IGCMOD = 0
    IGBMOD = 0
    STIMOD = 1
    VBFWDMOD = 0
    VERSION =    4.5 
    TOXREF = 6.02e-09 
    TOXE = 6.119e-09 
    TOXP = 5.979e-09 
    TOXM = 6.119e-09 
    DTOX = 1.4e-10 
    EPSROX =    3.9 
    CDSC =      0 
    CDSCB =      0 
    CDSCD =      0 
    CIT = 0.00063 
    NFACTOR =   1.05 
    XJ = 1.37e-07 
    VSAT = 8.5e+04 
    A0 =  1.495 
    AGS =  0.275 
    A1 =      0 
    A2 =      1 
    AT =  6e+04 
    KETA = -0.002248 
    NSUB =  6e+16 
    NDEP =  1e+17 
    NSD =  1e+20 
    NGATE =  1e+21 
    GAMMA1 =      0 
    GAMMA2 =      0 
    VBX =      0 
    VBM =     -3 
    XT = 1.55e-07 
    K1 =    0.6 
    KT1 = -0.1793 
    KT1L =  2e-08 
    KT2 = -0.02903 
    K2 =  -0.05 
    K3 =      0 
    K3B =    0.7 
    LPE0 =  7e-08 
    LPEB =      0 
    DVTP0 = -1e-07 
    DVTP1 =      0 
    W0 =      0 
    DVT0 =      7 
    DVT1 =   0.36 
    DVT2 =   0.01 
    DVT0W =      0 
    DVT1W =      0 
    DVT2W =      0 
    DROUT =   0.56 
    DSUB =   0.56 
    VTH0 = -0.642 
    EU =   1.67 
    UA = 2.579e-10 
    UA1 = 1.768e-09 
    UB = 1.231e-18 
    UB1 = -3.029e-18 
    UC = -2e-11 
    UC1 = 4.849e-12 
    U0 = 0.01046 
    UTE =     -1 
    VOFF = -0.132 
    VOFFL = -1.4e-08 
    MINV =  -0.08 
    FPROUT =      0 
    PDITS =      0 
    PDITSD =      0 
    PDITSL =      0 
    DELTA =  0.004 
    RDSW =    477 
    RDSWMIN =      0 
    RDWMIN =      0 
    RSWMIN =      0 
    RDW =    270 
    RSW =    270 
    PRWG =      0 
    PRWB =      0 
    PRT =      0 
    ETA0 =   0.08 
    ETAB = -0.152 
    PCLM =  0.362 
    PDIBLC1 =      0 
    PDIBLC2 = 3.06e-05 
    PDIBLCB =      0 
    PSCBE1 = 4.24e+09 
    PSCBE2 =  1e-08 
    PVAG =      0 
    WR =      1 
    DWG =      0 
    DWB =      0 
    XW = 1.23e-08 
    XWREF = 1.23e-08 
    XL = 1.36e-08 
    XLREF = 1.36e-08 
    B0 =      0 
    B1 =      0 
    ALPHA0 = -5.285e-06 
    ALPHA1 =   15.9 
    AGIDL =  5e-10 
    BGIDL =  2e+09 
    CGIDL =    0.5 
    PHIN = 0.04597 
    EGIDL =   0.37 
    AIGC = 0.0098 
    BIGC = 0.000759 
    CIGC =   0.03 
    AIGSD = 0.0098 
    BIGSD = 0.000759 
    CIGSD =   0.03 
    AIGBACC = 0.000949 
    BIGBACC = 0.00171 
    CIGBACC =  0.075 
    AIGBINV = 0.0111 
    BIGBINV = 0.000949 
    CIGBINV =  0.006 
    NIGC =      1 
    NIGBINV =      3 
    NIGBACC =      1 
    NTOX =      1 
    EIGBINV =    1.1 
    PIGCD =      1 
    POXEDGE =      1 
    XRCRG1 =     12 
    TNOIA =    1.5 
    TNOIB =    3.5 
    NTNOI =      1 
    XRCRG2 =      1 
    BETA0 =   33.6 
    IJTHDFWD =    0.1 
    IJTHSFWD =    0.1 
    IJTHDREV =    0.1 
    IJTHSREV =    0.1 
    XJBVD =      1 
    XJBVS =      1 
    BVD =   8.55 
    BVS =   8.55 
    VFB =     -1 
    GBMIN =  1e-12 
    RBDB =     50 
    RBPB =     50 
    RBSB =     50 
    RBPS =     50 
    RBPD =     50 
    CGSL = 3.23e-10 
    CGDL = 3.23e-10 
    CKAPPAS =    0.6 
    CKAPPAD =    0.6 
    CF = 5.478e-11 
    CLC =  1e-07 
    CLE =    0.6 
    DWC = -6.5e-08 
    DLC = 7.306e-08 
    DLCIG =  5e-09 
    DWJ =      0 
    VFBCV =     -1 
    ACDE = 0.5037 
    MOIN =      8 
    NOFF =    1.4 
    VOFFCV =  -0.02 
    DMCG = 9.9e-08 
    DMCI = 1.62e-07 
    DMDG =      0 
    DMCGT =      0 
    XGW =      0 
    XGL =      0 
    RSHG =    0.1 
    NGCON =      1 
    TCJ = 0.0008479 
    TPB = 0.001659 
    TCJSW = 0.000503 
    TPBSW = 0.002829 
    TCJSWG = 0.0002 
    TPBSWG = 0.0003037 
    SK0 =      0 
    SK1 =      0 
    SK2 =      0 
    SL =  2e-06 
    SW =  2e-06 
    K =      0 
    LCIT = -2e-10 
    LVSAT = 0.005595 
    LAT =  -0.07 
    LA0 = -9e-07 
    LAGS = 2.5e-07 
    LKETA = -3.24e-09 
    LKT2 = 1.227e-09 
    LVTH0 = -1.31e-08 
    LUA = 1.616e-16 
    LUA1 = 3.45e-17 
    LUB = -1e-25 
    LUB1 =  1e-25 
    LUC = 4.705e-18 
    LU0 = 1.215e-09 
    LDELTA = 3.23e-09 
    LETA0 = 4.292e-08 
    LETAB = 1.7e-08 
    LPCLM = 1.3e-07 
    LPDIBLC2 =  6e-10 
    LALPHA0 = 8.338e-13 
    LBETA0 = -1.837e-06 
    LAGIDL = -1.4e-16 
    LNOFF =  6e-07 
    LVOFFCV = -4e-08 
    WAT =  0.023 
    WA0 =  5e-09 
    WKETA = 3.031e-09 
    WKT1 = 1.029e-08 
    WVTH0 =  2e-09 
    WUA = -6.12e-17 
    WUB = 1.996e-26 
    WUB1 = 1.94e-25 
    WU0 =  2e-10 
    WPCLM = -1e-08 
    WAGIDL =  6e-16 
    PVSAT = -2.029e-09 
    PAT =  5e-09 
    PA0 = 9.04e-14 
    PKT1 =  8e-15 
    PK2 = -1e-16 
    PDVT1 = 5.016e-15 
    PVTH0 = -1e-15 
    PUA = 4.596e-23 
    PUA1 = 3.438e-24 
    PUB = -3.305e-32 
    PUB1 =  8e-33 
    PUC = -1.25e-24 
    PUC1 = 2.2e-24 
    PU0 = -2e-16 
    PVOFF = -2.128e-15 
    PETA0 = 1.08e-14 
    PAGIDL = -4e-22 
    TNOM =  298.1 
    CGSO = 9.5e-12 
    CGDO = 9.5e-12 
    CGBO =      0 
    XPART =      1 
    RSH =     14 
    JSS = 1.593e-07 
    JSWS = 1.013e-13 
    JSWGS = 1.53e-12 
    PBS =  0.729 
    MJS = 0.3168 
    PBSWS =   1.03 
    MJSWS = 0.1784 
    CJS = 0.001294 
    CJSWS = 6.083e-11 
    NJS = 0.9839 
    PBSWGS = 0.8317 
    MJSWGS =  0.465 
    CJSWGS = 1.698e-10 
    XTIS =      3 
    JSD = 1.593e-07 
    JSWD = 1.013e-13 
    JSWGD = 1.53e-12 
    PBD =  0.729 
    MJD = 0.3168 
    PBSWD =   1.03 
    MJSWD = 0.1784 
    CJD = 0.001294 
    CJSWD = 6.083e-11 
    NJD = 0.9839 
    PBSWGD = 0.8317 
    MJSWGD =  0.465 
    CJSWGD = 1.698e-10 
    XTID =      3 
    LMLT =      1 
    WMLT =      1 
    LINT =  4e-09 
    LL = -5e-15 
    LLC =      0 
    LLN =    0.9 
    LW =      0 
    LWC =      0 
    LWN =      1 
    LWL =      0 
    LWLC =      0 
    LMIN = 3.96e-07 
    LMAX = 0.0001 
    WINT = -2e-08 
    WL = -1.1e-14 
    WLC =      0 
    WLN =   0.98 
    WW =  9e-15 
    WWC =      0 
    WWN =   0.96 
    WWL =      0 
    WWLC =      0 
    WMIN = 2.88e-07 
    WMAX = 0.0001 
    NOIA = 5.223e+41 
    NOIB = 1.399e+26 
    NOIC =  6e+09 
    EM =  2e+09 
    EF =   1.21 
    AF =      1 
    KF =      0 
    TRS =      0 
    TRD =      0 
    TEMPMOD  =      0 
    LAMBDA   =      0 
    VTL      =  2e+05 m/s
    LC       =  5e-09 
    XN       =      3 
    LLAMBDA  =      0 
    LVTL     =      0 
    LXN      =      0 
    WLAMBDA  =      0 
    WVTL     =      0 
    WXN      =      0 
    PLAMBDA  =      0 
    PVTL     =      0 
    PXN      =      0 
    RNOIA    =  0.577 
    RNOIB    = 0.5164 
    SAREF(SA0) = 2.61e-07 m
    SBREF(SB0) = 2.61e-07 m
    WLOD     =      0 m
    KU0      =  3e-09 1/m
    KVSAT    =      1 
    KVTH0    =  4e-09 m
    TKU0     =      0 
    LLODKU0  =      1 
    WLODKU0  =      1 
    LLODVTH  =      1 
    WLODVTH  =      1 
    LKU0     =  2e-06 
    WKU0     =      0 
    PKU0     =      0 
    LKVTH0   =  7e-07 
    WKVTH0   =  3e-07 
    PKVTH0   =  2e-13 
    STK2     =      0 
    LODK2    =      1 
    STETA0   =      0 
    LODETA0  =      1 
    LXRCRG1  =      0 
    WXRCRG1  =      0 
    PXRCRG1  =      0 
    LXRCRG2  =      0 
    WXRCRG2  =      0 
    PXRCRG2  =      0 
 

    *** UCB's BSIM4.4.0 new diode model is activated. ***
    *** UCB's Diode Model Parameters ***

    JTSS         =      0 
    JTSSWS       =      0 
    JTSSWGS      =  7e-10 
    JTSD         =      0 
    JTSSWD       =      0 
    JTSSWGD      =  7e-10 
    NJTS         =     20 
    NJTSSW       =     20 
    NJTSSWG      =     20 
    XTSS         =   0.02 
    XTSSWS       =   0.02 
    XTSSWGS      =   0.02 
    XTSD         =   0.02 
    XTSSWD       =   0.02 
    XTSSWGD      =   0.02 
    TNJTS        =      0 
    TNJTSSW      =      0 
    TNJTSSWG     =      0 
    VFBSDOFF     =      0 
    LVFBSDOFF    =      0 
    WVFBSDOFF    =      0 
    PVFBSDOFF    =      0 
    LINTNOI      = -1.8e-08 
    VTSS         =     10 
    VTSD         =     10 
    VTSSWS       =     10 
    VTSSWD       =     10 
    VTSSWGS      =     10 
    VTSSWGD      =     10 
    TTDIOMOD     =      1 
 

    *** UCB's BSIM4.5.0 new model is activated. ***
    UD         =  1e+14 
    UD1        =      0 
    UP         =      0 
    LP         =  1e-08 
    TVOFF      =  0.005 
    TVFBSDOFF  =      0 
    RBPS0      =     50 
    RBPSL      =      0 
    RBPSW      =      0 
    RBPSNF     =      0 
    RBPD0      =     50 
    RBPDL      =      0 
    RBPDW      =      0 
    RBPDNF     =      0 
    RBPBX0     =    100 
    RBPBXL     =      0 
    RBPBXW     =      0 
    RBPBXNF    =      0 
    RBPBY0     =    100 
    RBPBYL     =      0 
    RBPBYW     =      0 
    RBPBYNF    =      0 
    RBSBX0     =    100 
    RBSBY0     =    100 
    RBDBX0     =    100 
    RBDBY0     =    100 
    RBSDBXL    =      0 
    RBSDBXW    =      0 
    RBSDBXNF   =      0 
    RBSDBYL    =      0 
    RBSDBYW    =      0 
    RBSDBYNF   =      0 
    LUD        =      0 
    LUD1       =      0 
    LUP        =      0 
    LLP        =      0 
    LTVOFF     =      0 
    LTVFBSDOFF =      0 
    WUD        =      0 
    WUD1       =      0 
    WUP        =      0 
    WLP        =      0 
    WTVOFF     = 6.4e-10 
    WTVFBSDOFF =      0 
    PUD        =      0 
    PUD1       =      0 
    PUP        =      0 
    PLP        =      0 
    PTVOFF     =      0 
    PTVFBSDOFF =      0 
    WEB        =     10 
    WEC        =      0 
    KVTH0WE    = -0.008 
    K2WE       =      0 
    KU0WE      = -0.004 
    SCREF      =  1e-06 
    WPEMOD     =      1 
    LKVTH0WE   = -6e-10 
    LK2WE      =      0 
    LKU0WE     =      0 
    WKVTH0WE   =  3e-10 
    WK2WE      =      0 
    WKU0WE     = -1e-10 
    PKVTH0WE   =  1e-16 
    PK2WE      =      0 
    PKU0WE     = -8e-17 
 

 
Model Name: pod33ll_ckt  

 BSIM4 Model (Level 54)

    MOBMOD = 0
    BINUNIT = 2
    PARAMCHK = 1
    CAPMOD = 2
    DIOMOD = 2
    RDSMOD = 1
    TRNQSMOD = 0
    ACNQSMOD = 0
    RBODYMOD = 0
    RGATEMOD = 0
    PERMOD = 1
    GEOMOD = 0
    RGEOMOD = 1
    FNOIMOD = 1
    TNOIMOD = 0
    IGCMOD = 0
    IGBMOD = 0
    STIMOD = 1
    VBFWDMOD = 0
    VERSION =    4.5 
    TOXREF = 6.02e-09 
    TOXE = 6.119e-09 
    TOXP = 5.979e-09 
    TOXM = 6.119e-09 
    DTOX = 1.4e-10 
    EPSROX =    3.9 
    CDSC =      0 
    CDSCB =      0 
    CDSCD =      0 
    CIT = 0.00063 
    NFACTOR =   1.05 
    XJ = 1.37e-07 
    VSAT = 8.5e+04 
    A0 =  1.495 
    AGS =  0.275 
    A1 =      0 
    A2 =      1 
    AT =  6e+04 
    KETA = -0.002248 
    NSUB =  6e+16 
    NDEP =  1e+17 
    NSD =  1e+20 
    NGATE =  1e+21 
    GAMMA1 =      0 
    GAMMA2 =      0 
    VBX =      0 
    VBM =     -3 
    XT = 1.55e-07 
    K1 =    0.6 
    KT1 = -0.1793 
    KT1L =  2e-08 
    KT2 = -0.02903 
    K2 =  -0.05 
    K3 =      0 
    K3B =    0.7 
    LPE0 =  7e-08 
    LPEB =      0 
    DVTP0 = -1e-07 
    DVTP1 =      0 
    W0 =      0 
    DVT0 =      7 
    DVT1 =   0.36 
    DVT2 =   0.01 
    DVT0W =      0 
    DVT1W =      0 
    DVT2W =      0 
    DROUT =   0.56 
    DSUB =   0.56 
    VTH0 = -0.642 
    EU =   1.67 
    UA = 2.579e-10 
    UA1 = 1.768e-09 
    UB = 1.231e-18 
    UB1 = -3.029e-18 
    UC = -2e-11 
    UC1 = 4.849e-12 
    U0 = 0.01046 
    UTE =     -1 
    VOFF = -0.132 
    VOFFL = -1.4e-08 
    MINV =  -0.08 
    FPROUT =      0 
    PDITS =      0 
    PDITSD =      0 
    PDITSL =      0 
    DELTA =  0.004 
    RDSW =    477 
    RDSWMIN =      0 
    RDWMIN =      0 
    RSWMIN =      0 
    RDW =    270 
    RSW =    270 
    PRWG =      0 
    PRWB =      0 
    PRT =      0 
    ETA0 =   0.08 
    ETAB = -0.152 
    PCLM =  0.362 
    PDIBLC1 =      0 
    PDIBLC2 = 3.06e-05 
    PDIBLCB =      0 
    PSCBE1 = 4.24e+09 
    PSCBE2 =  1e-08 
    PVAG =      0 
    WR =      1 
    DWG =      0 
    DWB =      0 
    XW = 1.23e-08 
    XWREF = 1.23e-08 
    XL = 1.36e-08 
    XLREF = 1.36e-08 
    B0 =      0 
    B1 =      0 
    ALPHA0 = -5.285e-06 
    ALPHA1 =   15.9 
    AGIDL =  5e-10 
    BGIDL =  2e+09 
    CGIDL =    0.5 
    PHIN = 0.04597 
    EGIDL =   0.37 
    AIGC = 0.0098 
    BIGC = 0.000759 
    CIGC =   0.03 
    AIGSD = 0.0098 
    BIGSD = 0.000759 
    CIGSD =   0.03 
    AIGBACC = 0.000949 
    BIGBACC = 0.00171 
    CIGBACC =  0.075 
    AIGBINV = 0.0111 
    BIGBINV = 0.000949 
    CIGBINV =  0.006 
    NIGC =      1 
    NIGBINV =      3 
    NIGBACC =      1 
    NTOX =      1 
    EIGBINV =    1.1 
    PIGCD =      1 
    POXEDGE =      1 
    XRCRG1 =     12 
    TNOIA =    1.5 
    TNOIB =    3.5 
    NTNOI =      1 
    XRCRG2 =      1 
    BETA0 =   33.6 
    IJTHDFWD =    0.1 
    IJTHSFWD =    0.1 
    IJTHDREV =    0.1 
    IJTHSREV =    0.1 
    XJBVD =      1 
    XJBVS =      1 
    BVD =   8.55 
    BVS =   8.55 
    VFB =     -1 
    GBMIN =  1e-12 
    RBDB =     50 
    RBPB =     50 
    RBSB =     50 
    RBPS =     50 
    RBPD =     50 
    CGSL = 3.23e-10 
    CGDL = 3.23e-10 
    CKAPPAS =    0.6 
    CKAPPAD =    0.6 
    CF = 5.478e-11 
    CLC =  1e-07 
    CLE =    0.6 
    DWC = -6.5e-08 
    DLC = 7.306e-08 
    DLCIG =  5e-09 
    DWJ =      0 
    VFBCV =     -1 
    ACDE = 0.5037 
    MOIN =      8 
    NOFF =    1.4 
    VOFFCV =  -0.02 
    DMCG = 9.9e-08 
    DMCI = 1.62e-07 
    DMDG =      0 
    DMCGT =      0 
    XGW =      0 
    XGL =      0 
    RSHG =    0.1 
    NGCON =      1 
    TCJ = 0.0008479 
    TPB = 0.001659 
    TCJSW = 0.000503 
    TPBSW = 0.002829 
    TCJSWG = 0.0002 
    TPBSWG = 0.0003037 
    SK0 =      0 
    SK1 =      0 
    SK2 =      0 
    SL =  2e-06 
    SW =  2e-06 
    K =      0 
    LCIT = -2e-10 
    LVSAT = 0.005595 
    LAT =  -0.07 
    LA0 = -9e-07 
    LAGS = 2.5e-07 
    LKETA = -3.24e-09 
    LKT2 = 1.227e-09 
    LVTH0 = -1.31e-08 
    LUA = 1.616e-16 
    LUA1 = 3.45e-17 
    LUB = -1e-25 
    LUB1 =  1e-25 
    LUC = 4.705e-18 
    LU0 = 1.215e-09 
    LDELTA = 3.23e-09 
    LETA0 = 4.292e-08 
    LETAB = 1.7e-08 
    LPCLM = 1.3e-07 
    LPDIBLC2 =  6e-10 
    LALPHA0 = 8.338e-13 
    LBETA0 = -1.837e-06 
    LAGIDL = -1.4e-16 
    LNOFF =  6e-07 
    LVOFFCV = -4e-08 
    WAT =  0.023 
    WA0 =  5e-09 
    WKETA = 3.031e-09 
    WKT1 = 1.029e-08 
    WVTH0 =  2e-09 
    WUA = -6.12e-17 
    WUB = 1.996e-26 
    WUB1 = 1.94e-25 
    WU0 =  2e-10 
    WPCLM = -1e-08 
    WAGIDL =  6e-16 
    PVSAT = -2.029e-09 
    PAT =  5e-09 
    PA0 = 9.04e-14 
    PKT1 =  8e-15 
    PK2 = -1e-16 
    PDVT1 = 5.016e-15 
    PVTH0 = -1e-15 
    PUA = 4.596e-23 
    PUA1 = 3.438e-24 
    PUB = -3.305e-32 
    PUB1 =  8e-33 
    PUC = -1.25e-24 
    PUC1 = 2.2e-24 
    PU0 = -2e-16 
    PVOFF = -2.128e-15 
    PETA0 = 1.08e-14 
    PAGIDL = -4e-22 
    TNOM =  298.1 
    CGSO = 9.5e-12 
    CGDO = 9.5e-12 
    CGBO =      0 
    XPART =      1 
    RSH =     14 
    JSS = 1.593e-07 
    JSWS = 1.013e-13 
    JSWGS = 1.53e-12 
    PBS =  0.729 
    MJS = 0.3168 
    PBSWS =   1.03 
    MJSWS = 0.1784 
    CJS = 0.001294 
    CJSWS = 6.083e-11 
    NJS = 0.9839 
    PBSWGS = 0.8317 
    MJSWGS =  0.465 
    CJSWGS = 1.698e-10 
    XTIS =      3 
    JSD = 1.593e-07 
    JSWD = 1.013e-13 
    JSWGD = 1.53e-12 
    PBD =  0.729 
    MJD = 0.3168 
    PBSWD =   1.03 
    MJSWD = 0.1784 
    CJD = 0.001294 
    CJSWD = 6.083e-11 
    NJD = 0.9839 
    PBSWGD = 0.8317 
    MJSWGD =  0.465 
    CJSWGD = 1.698e-10 
    XTID =      3 
    LMLT =      1 
    WMLT =      1 
    LINT =  4e-09 
    LL = -5e-15 
    LLC =      0 
    LLN =    0.9 
    LW =      0 
    LWC =      0 
    LWN =      1 
    LWL =      0 
    LWLC =      0 
    LMIN = 3.96e-07 
    LMAX = 0.0001 
    WINT = -2e-08 
    WL = -1.1e-14 
    WLC =      0 
    WLN =   0.98 
    WW =  9e-15 
    WWC =      0 
    WWN =   0.96 
    WWL =      0 
    WWLC =      0 
    WMIN = 2.88e-07 
    WMAX = 0.0001 
    NOIA = 5.223e+41 
    NOIB = 1.399e+26 
    NOIC =  6e+09 
    EM =  2e+09 
    EF =   1.21 
    AF =      1 
    KF =      0 
    TRS =      0 
    TRD =      0 
    TEMPMOD  =      0 
    LAMBDA   =      0 
    VTL      =  2e+05 m/s
    LC       =  5e-09 
    XN       =      3 
    LLAMBDA  =      0 
    LVTL     =      0 
    LXN      =      0 
    WLAMBDA  =      0 
    WVTL     =      0 
    WXN      =      0 
    PLAMBDA  =      0 
    PVTL     =      0 
    PXN      =      0 
    RNOIA    =  0.577 
    RNOIB    = 0.5164 
    SAREF(SA0) = 2.61e-07 m
    SBREF(SB0) = 2.61e-07 m
    WLOD     =      0 m
    KU0      =  3e-09 1/m
    KVSAT    =      1 
    KVTH0    =  4e-09 m
    TKU0     =      0 
    LLODKU0  =      1 
    WLODKU0  =      1 
    LLODVTH  =      1 
    WLODVTH  =      1 
    LKU0     =  2e-06 
    WKU0     =      0 
    PKU0     =      0 
    LKVTH0   =  7e-07 
    WKVTH0   =  3e-07 
    PKVTH0   =  2e-13 
    STK2     =      0 
    LODK2    =      1 
    STETA0   =      0 
    LODETA0  =      1 
    LXRCRG1  =      0 
    WXRCRG1  =      0 
    PXRCRG1  =      0 
    LXRCRG2  =      0 
    WXRCRG2  =      0 
    PXRCRG2  =      0 
 

    *** UCB's BSIM4.4.0 new diode model is activated. ***
    *** UCB's Diode Model Parameters ***

    JTSS         =      0 
    JTSSWS       =      0 
    JTSSWGS      =  7e-10 
    JTSD         =      0 
    JTSSWD       =      0 
    JTSSWGD      =  7e-10 
    NJTS         =     20 
    NJTSSW       =     20 
    NJTSSWG      =     20 
    XTSS         =   0.02 
    XTSSWS       =   0.02 
    XTSSWGS      =   0.02 
    XTSD         =   0.02 
    XTSSWD       =   0.02 
    XTSSWGD      =   0.02 
    TNJTS        =      0 
    TNJTSSW      =      0 
    TNJTSSWG     =      0 
    VFBSDOFF     =      0 
    LVFBSDOFF    =      0 
    WVFBSDOFF    =      0 
    PVFBSDOFF    =      0 
    LINTNOI      = -1.8e-08 
    VTSS         =     10 
    VTSD         =     10 
    VTSSWS       =     10 
    VTSSWD       =     10 
    VTSSWGS      =     10 
    VTSSWGD      =     10 
    TTDIOMOD     =      1 
 

    *** UCB's BSIM4.5.0 new model is activated. ***
    UD         =  1e+14 
    UD1        =      0 
    UP         =      0 
    LP         =  1e-08 
    TVOFF      =  0.005 
    TVFBSDOFF  =      0 
    RBPS0      =     50 
    RBPSL      =      0 
    RBPSW      =      0 
    RBPSNF     =      0 
    RBPD0      =     50 
    RBPDL      =      0 
    RBPDW      =      0 
    RBPDNF     =      0 
    RBPBX0     =    100 
    RBPBXL     =      0 
    RBPBXW     =      0 
    RBPBXNF    =      0 
    RBPBY0     =    100 
    RBPBYL     =      0 
    RBPBYW     =      0 
    RBPBYNF    =      0 
    RBSBX0     =    100 
    RBSBY0     =    100 
    RBDBX0     =    100 
    RBDBY0     =    100 
    RBSDBXL    =      0 
    RBSDBXW    =      0 
    RBSDBXNF   =      0 
    RBSDBYL    =      0 
    RBSDBYW    =      0 
    RBSDBYNF   =      0 
    LUD        =      0 
    LUD1       =      0 
    LUP        =      0 
    LLP        =      0 
    LTVOFF     =      0 
    LTVFBSDOFF =      0 
    WUD        =      0 
    WUD1       =      0 
    WUP        =      0 
    WLP        =      0 
    WTVOFF     = 6.4e-10 
    WTVFBSDOFF =      0 
    PUD        =      0 
    PUD1       =      0 
    PUP        =      0 
    PLP        =      0 
    PTVOFF     =      0 
    PTVFBSDOFF =      0 
    WEB        =     10 
    WEC        =      0 
    KVTH0WE    = -0.008 
    K2WE       =      0 
    KU0WE      = -0.004 
    SCREF      =  1e-06 
    WPEMOD     =      1 
    LKVTH0WE   = -6e-10 
    LK2WE      =      0 
    LKU0WE     =      0 
    WKVTH0WE   =  3e-10 
    WK2WE      =      0 
    WKU0WE     = -1e-10 
    PKVTH0WE   =  1e-16 
    PK2WE      =      0 
    PKU0WE     = -8e-17 
 

 
Model Name: pod33ll_ckt  

 BSIM4 Model (Level 54)

    MOBMOD = 0
    BINUNIT = 2
    PARAMCHK = 1
    CAPMOD = 2
    DIOMOD = 2
    RDSMOD = 1
    TRNQSMOD = 0
    ACNQSMOD = 0
    RBODYMOD = 0
    RGATEMOD = 0
    PERMOD = 1
    GEOMOD = 0
    RGEOMOD = 1
    FNOIMOD = 1
    TNOIMOD = 0
    IGCMOD = 0
    IGBMOD = 0
    STIMOD = 1
    VBFWDMOD = 0
    VERSION =    4.5 
    TOXREF = 6.02e-09 
    TOXE = 6.119e-09 
    TOXP = 5.979e-09 
    TOXM = 6.119e-09 
    DTOX = 1.4e-10 
    EPSROX =    3.9 
    CDSC =      0 
    CDSCB =      0 
    CDSCD =      0 
    CIT = 0.00063 
    NFACTOR =   1.05 
    XJ = 1.37e-07 
    VSAT = 8.5e+04 
    A0 =  1.495 
    AGS =  0.275 
    A1 =      0 
    A2 =      1 
    AT =  6e+04 
    KETA = -0.002248 
    NSUB =  6e+16 
    NDEP =  1e+17 
    NSD =  1e+20 
    NGATE =  1e+21 
    GAMMA1 =      0 
    GAMMA2 =      0 
    VBX =      0 
    VBM =     -3 
    XT = 1.55e-07 
    K1 =    0.6 
    KT1 = -0.1793 
    KT1L =  2e-08 
    KT2 = -0.02903 
    K2 =  -0.05 
    K3 =      0 
    K3B =    0.7 
    LPE0 =  7e-08 
    LPEB =      0 
    DVTP0 = -1e-07 
    DVTP1 =      0 
    W0 =      0 
    DVT0 =      7 
    DVT1 =   0.36 
    DVT2 =   0.01 
    DVT0W =      0 
    DVT1W =      0 
    DVT2W =      0 
    DROUT =   0.56 
    DSUB =   0.56 
    VTH0 = -0.642 
    EU =   1.67 
    UA = 2.579e-10 
    UA1 = 1.768e-09 
    UB = 1.231e-18 
    UB1 = -3.029e-18 
    UC = -2e-11 
    UC1 = 4.849e-12 
    U0 = 0.01046 
    UTE =     -1 
    VOFF = -0.132 
    VOFFL = -1.4e-08 
    MINV =  -0.08 
    FPROUT =      0 
    PDITS =      0 
    PDITSD =      0 
    PDITSL =      0 
    DELTA =  0.004 
    RDSW =    477 
    RDSWMIN =      0 
    RDWMIN =      0 
    RSWMIN =      0 
    RDW =    270 
    RSW =    270 
    PRWG =      0 
    PRWB =      0 
    PRT =      0 
    ETA0 =   0.08 
    ETAB = -0.152 
    PCLM =  0.362 
    PDIBLC1 =      0 
    PDIBLC2 = 3.06e-05 
    PDIBLCB =      0 
    PSCBE1 = 4.24e+09 
    PSCBE2 =  1e-08 
    PVAG =      0 
    WR =      1 
    DWG =      0 
    DWB =      0 
    XW = 1.23e-08 
    XWREF = 1.23e-08 
    XL = 1.36e-08 
    XLREF = 1.36e-08 
    B0 =      0 
    B1 =      0 
    ALPHA0 = -5.285e-06 
    ALPHA1 =   15.9 
    AGIDL =  5e-10 
    BGIDL =  2e+09 
    CGIDL =    0.5 
    PHIN = 0.04597 
    EGIDL =   0.37 
    AIGC = 0.0098 
    BIGC = 0.000759 
    CIGC =   0.03 
    AIGSD = 0.0098 
    BIGSD = 0.000759 
    CIGSD =   0.03 
    AIGBACC = 0.000949 
    BIGBACC = 0.00171 
    CIGBACC =  0.075 
    AIGBINV = 0.0111 
    BIGBINV = 0.000949 
    CIGBINV =  0.006 
    NIGC =      1 
    NIGBINV =      3 
    NIGBACC =      1 
    NTOX =      1 
    EIGBINV =    1.1 
    PIGCD =      1 
    POXEDGE =      1 
    XRCRG1 =     12 
    TNOIA =    1.5 
    TNOIB =    3.5 
    NTNOI =      1 
    XRCRG2 =      1 
    BETA0 =   33.6 
    IJTHDFWD =    0.1 
    IJTHSFWD =    0.1 
    IJTHDREV =    0.1 
    IJTHSREV =    0.1 
    XJBVD =      1 
    XJBVS =      1 
    BVD =   8.55 
    BVS =   8.55 
    VFB =     -1 
    GBMIN =  1e-12 
    RBDB =     50 
    RBPB =     50 
    RBSB =     50 
    RBPS =     50 
    RBPD =     50 
    CGSL = 3.23e-10 
    CGDL = 3.23e-10 
    CKAPPAS =    0.6 
    CKAPPAD =    0.6 
    CF = 5.478e-11 
    CLC =  1e-07 
    CLE =    0.6 
    DWC = -6.5e-08 
    DLC = 7.306e-08 
    DLCIG =  5e-09 
    DWJ =      0 
    VFBCV =     -1 
    ACDE = 0.5037 
    MOIN =      8 
    NOFF =    1.4 
    VOFFCV =  -0.02 
    DMCG = 9.9e-08 
    DMCI = 1.62e-07 
    DMDG =      0 
    DMCGT =      0 
    XGW =      0 
    XGL =      0 
    RSHG =    0.1 
    NGCON =      1 
    TCJ = 0.0008479 
    TPB = 0.001659 
    TCJSW = 0.000503 
    TPBSW = 0.002829 
    TCJSWG = 0.0002 
    TPBSWG = 0.0003037 
    SK0 =      0 
    SK1 =      0 
    SK2 =      0 
    SL =  2e-06 
    SW =  2e-06 
    K =      0 
    LCIT = -2e-10 
    LVSAT = 0.005595 
    LAT =  -0.07 
    LA0 = -9e-07 
    LAGS = 2.5e-07 
    LKETA = -3.24e-09 
    LKT2 = 1.227e-09 
    LVTH0 = -1.31e-08 
    LUA = 1.616e-16 
    LUA1 = 3.45e-17 
    LUB = -1e-25 
    LUB1 =  1e-25 
    LUC = 4.705e-18 
    LU0 = 1.215e-09 
    LDELTA = 3.23e-09 
    LETA0 = 4.292e-08 
    LETAB = 1.7e-08 
    LPCLM = 1.3e-07 
    LPDIBLC2 =  6e-10 
    LALPHA0 = 8.338e-13 
    LBETA0 = -1.837e-06 
    LAGIDL = -1.4e-16 
    LNOFF =  6e-07 
    LVOFFCV = -4e-08 
    WAT =  0.023 
    WA0 =  5e-09 
    WKETA = 3.031e-09 
    WKT1 = 1.029e-08 
    WVTH0 =  2e-09 
    WUA = -6.12e-17 
    WUB = 1.996e-26 
    WUB1 = 1.94e-25 
    WU0 =  2e-10 
    WPCLM = -1e-08 
    WAGIDL =  6e-16 
    PVSAT = -2.029e-09 
    PAT =  5e-09 
    PA0 = 9.04e-14 
    PKT1 =  8e-15 
    PK2 = -1e-16 
    PDVT1 = 5.016e-15 
    PVTH0 = -1e-15 
    PUA = 4.596e-23 
    PUA1 = 3.438e-24 
    PUB = -3.305e-32 
    PUB1 =  8e-33 
    PUC = -1.25e-24 
    PUC1 = 2.2e-24 
    PU0 = -2e-16 
    PVOFF = -2.128e-15 
    PETA0 = 1.08e-14 
    PAGIDL = -4e-22 
    TNOM =  298.1 
    CGSO = 9.5e-12 
    CGDO = 9.5e-12 
    CGBO =      0 
    XPART =      1 
    RSH =     14 
    JSS = 1.593e-07 
    JSWS = 1.013e-13 
    JSWGS = 1.53e-12 
    PBS =  0.729 
    MJS = 0.3168 
    PBSWS =   1.03 
    MJSWS = 0.1784 
    CJS = 0.001294 
    CJSWS = 6.083e-11 
    NJS = 0.9839 
    PBSWGS = 0.8317 
    MJSWGS =  0.465 
    CJSWGS = 1.698e-10 
    XTIS =      3 
    JSD = 1.593e-07 
    JSWD = 1.013e-13 
    JSWGD = 1.53e-12 
    PBD =  0.729 
    MJD = 0.3168 
    PBSWD =   1.03 
    MJSWD = 0.1784 
    CJD = 0.001294 
    CJSWD = 6.083e-11 
    NJD = 0.9839 
    PBSWGD = 0.8317 
    MJSWGD =  0.465 
    CJSWGD = 1.698e-10 
    XTID =      3 
    LMLT =      1 
    WMLT =      1 
    LINT =  4e-09 
    LL = -5e-15 
    LLC =      0 
    LLN =    0.9 
    LW =      0 
    LWC =      0 
    LWN =      1 
    LWL =      0 
    LWLC =      0 
    LMIN = 3.96e-07 
    LMAX = 0.0001 
    WINT = -2e-08 
    WL = -1.1e-14 
    WLC =      0 
    WLN =   0.98 
    WW =  9e-15 
    WWC =      0 
    WWN =   0.96 
    WWL =      0 
    WWLC =      0 
    WMIN = 2.88e-07 
    WMAX = 0.0001 
    NOIA = 5.223e+41 
    NOIB = 1.399e+26 
    NOIC =  6e+09 
    EM =  2e+09 
    EF =   1.21 
    AF =      1 
    KF =      0 
    TRS =      0 
    TRD =      0 
    TEMPMOD  =      0 
    LAMBDA   =      0 
    VTL      =  2e+05 m/s
    LC       =  5e-09 
    XN       =      3 
    LLAMBDA  =      0 
    LVTL     =      0 
    LXN      =      0 
    WLAMBDA  =      0 
    WVTL     =      0 
    WXN      =      0 
    PLAMBDA  =      0 
    PVTL     =      0 
    PXN      =      0 
    RNOIA    =  0.577 
    RNOIB    = 0.5164 
    SAREF(SA0) = 2.61e-07 m
    SBREF(SB0) = 2.61e-07 m
    WLOD     =      0 m
    KU0      =  3e-09 1/m
    KVSAT    =      1 
    KVTH0    =  4e-09 m
    TKU0     =      0 
    LLODKU0  =      1 
    WLODKU0  =      1 
    LLODVTH  =      1 
    WLODVTH  =      1 
    LKU0     =  2e-06 
    WKU0     =      0 
    PKU0     =      0 
    LKVTH0   =  7e-07 
    WKVTH0   =  3e-07 
    PKVTH0   =  2e-13 
    STK2     =      0 
    LODK2    =      1 
    STETA0   =      0 
    LODETA0  =      1 
    LXRCRG1  =      0 
    WXRCRG1  =      0 
    PXRCRG1  =      0 
    LXRCRG2  =      0 
    WXRCRG2  =      0 
    PXRCRG2  =      0 
 

    *** UCB's BSIM4.4.0 new diode model is activated. ***
    *** UCB's Diode Model Parameters ***

    JTSS         =      0 
    JTSSWS       =      0 
    JTSSWGS      =  7e-10 
    JTSD         =      0 
    JTSSWD       =      0 
    JTSSWGD      =  7e-10 
    NJTS         =     20 
    NJTSSW       =     20 
    NJTSSWG      =     20 
    XTSS         =   0.02 
    XTSSWS       =   0.02 
    XTSSWGS      =   0.02 
    XTSD         =   0.02 
    XTSSWD       =   0.02 
    XTSSWGD      =   0.02 
    TNJTS        =      0 
    TNJTSSW      =      0 
    TNJTSSWG     =      0 
    VFBSDOFF     =      0 
    LVFBSDOFF    =      0 
    WVFBSDOFF    =      0 
    PVFBSDOFF    =      0 
    LINTNOI      = -1.8e-08 
    VTSS         =     10 
    VTSD         =     10 
    VTSSWS       =     10 
    VTSSWD       =     10 
    VTSSWGS      =     10 
    VTSSWGD      =     10 
    TTDIOMOD     =      1 
 

    *** UCB's BSIM4.5.0 new model is activated. ***
    UD         =  1e+14 
    UD1        =      0 
    UP         =      0 
    LP         =  1e-08 
    TVOFF      =  0.005 
    TVFBSDOFF  =      0 
    RBPS0      =     50 
    RBPSL      =      0 
    RBPSW      =      0 
    RBPSNF     =      0 
    RBPD0      =     50 
    RBPDL      =      0 
    RBPDW      =      0 
    RBPDNF     =      0 
    RBPBX0     =    100 
    RBPBXL     =      0 
    RBPBXW     =      0 
    RBPBXNF    =      0 
    RBPBY0     =    100 
    RBPBYL     =      0 
    RBPBYW     =      0 
    RBPBYNF    =      0 
    RBSBX0     =    100 
    RBSBY0     =    100 
    RBDBX0     =    100 
    RBDBY0     =    100 
    RBSDBXL    =      0 
    RBSDBXW    =      0 
    RBSDBXNF   =      0 
    RBSDBYL    =      0 
    RBSDBYW    =      0 
    RBSDBYNF   =      0 
    LUD        =      0 
    LUD1       =      0 
    LUP        =      0 
    LLP        =      0 
    LTVOFF     =      0 
    LTVFBSDOFF =      0 
    WUD        =      0 
    WUD1       =      0 
    WUP        =      0 
    WLP        =      0 
    WTVOFF     = 6.4e-10 
    WTVFBSDOFF =      0 
    PUD        =      0 
    PUD1       =      0 
    PUP        =      0 
    PLP        =      0 
    PTVOFF     =      0 
    PTVFBSDOFF =      0 
    WEB        =     10 
    WEC        =      0 
    KVTH0WE    = -0.008 
    K2WE       =      0 
    KU0WE      = -0.004 
    SCREF      =  1e-06 
    WPEMOD     =      1 
    LKVTH0WE   = -6e-10 
    LK2WE      =      0 
    LKU0WE     =      0 
    WKVTH0WE   =  3e-10 
    WK2WE      =      0 
    WKU0WE     = -1e-10 
    PKVTH0WE   =  1e-16 
    PK2WE      =      0 
    PKU0WE     = -8e-17 
 

 
Model Name: pod33ll_ckt  

 BSIM4 Model (Level 54)

    MOBMOD = 0
    BINUNIT = 2
    PARAMCHK = 1
    CAPMOD = 2
    DIOMOD = 2
    RDSMOD = 1
    TRNQSMOD = 0
    ACNQSMOD = 0
    RBODYMOD = 0
    RGATEMOD = 0
    PERMOD = 1
    GEOMOD = 0
    RGEOMOD = 1
    FNOIMOD = 1
    TNOIMOD = 0
    IGCMOD = 0
    IGBMOD = 0
    STIMOD = 1
    VBFWDMOD = 0
    VERSION =    4.5 
    TOXREF = 6.02e-09 
    TOXE = 6.119e-09 
    TOXP = 5.979e-09 
    TOXM = 6.119e-09 
    DTOX = 1.4e-10 
    EPSROX =    3.9 
    CDSC =      0 
    CDSCB =      0 
    CDSCD =      0 
    CIT = 0.00063 
    NFACTOR =   1.05 
    XJ = 1.37e-07 
    VSAT = 8.5e+04 
    A0 =  1.495 
    AGS =  0.275 
    A1 =      0 
    A2 =      1 
    AT =  6e+04 
    KETA = -0.002248 
    NSUB =  6e+16 
    NDEP =  1e+17 
    NSD =  1e+20 
    NGATE =  1e+21 
    GAMMA1 =      0 
    GAMMA2 =      0 
    VBX =      0 
    VBM =     -3 
    XT = 1.55e-07 
    K1 =    0.6 
    KT1 = -0.1793 
    KT1L =  2e-08 
    KT2 = -0.02903 
    K2 =  -0.05 
    K3 =      0 
    K3B =    0.7 
    LPE0 =  7e-08 
    LPEB =      0 
    DVTP0 = -1e-07 
    DVTP1 =      0 
    W0 =      0 
    DVT0 =      7 
    DVT1 =   0.36 
    DVT2 =   0.01 
    DVT0W =      0 
    DVT1W =      0 
    DVT2W =      0 
    DROUT =   0.56 
    DSUB =   0.56 
    VTH0 = -0.642 
    EU =   1.67 
    UA = 2.579e-10 
    UA1 = 1.768e-09 
    UB = 1.231e-18 
    UB1 = -3.029e-18 
    UC = -2e-11 
    UC1 = 4.849e-12 
    U0 = 0.01046 
    UTE =     -1 
    VOFF = -0.132 
    VOFFL = -1.4e-08 
    MINV =  -0.08 
    FPROUT =      0 
    PDITS =      0 
    PDITSD =      0 
    PDITSL =      0 
    DELTA =  0.004 
    RDSW =    477 
    RDSWMIN =      0 
    RDWMIN =      0 
    RSWMIN =      0 
    RDW =    270 
    RSW =    270 
    PRWG =      0 
    PRWB =      0 
    PRT =      0 
    ETA0 =   0.08 
    ETAB = -0.152 
    PCLM =  0.362 
    PDIBLC1 =      0 
    PDIBLC2 = 3.06e-05 
    PDIBLCB =      0 
    PSCBE1 = 4.24e+09 
    PSCBE2 =  1e-08 
    PVAG =      0 
    WR =      1 
    DWG =      0 
    DWB =      0 
    XW = 1.23e-08 
    XWREF = 1.23e-08 
    XL = 1.36e-08 
    XLREF = 1.36e-08 
    B0 =      0 
    B1 =      0 
    ALPHA0 = -5.285e-06 
    ALPHA1 =   15.9 
    AGIDL =  5e-10 
    BGIDL =  2e+09 
    CGIDL =    0.5 
    PHIN = 0.04597 
    EGIDL =   0.37 
    AIGC = 0.0098 
    BIGC = 0.000759 
    CIGC =   0.03 
    AIGSD = 0.0098 
    BIGSD = 0.000759 
    CIGSD =   0.03 
    AIGBACC = 0.000949 
    BIGBACC = 0.00171 
    CIGBACC =  0.075 
    AIGBINV = 0.0111 
    BIGBINV = 0.000949 
    CIGBINV =  0.006 
    NIGC =      1 
    NIGBINV =      3 
    NIGBACC =      1 
    NTOX =      1 
    EIGBINV =    1.1 
    PIGCD =      1 
    POXEDGE =      1 
    XRCRG1 =     12 
    TNOIA =    1.5 
    TNOIB =    3.5 
    NTNOI =      1 
    XRCRG2 =      1 
    BETA0 =   33.6 
    IJTHDFWD =    0.1 
    IJTHSFWD =    0.1 
    IJTHDREV =    0.1 
    IJTHSREV =    0.1 
    XJBVD =      1 
    XJBVS =      1 
    BVD =   8.55 
    BVS =   8.55 
    VFB =     -1 
    GBMIN =  1e-12 
    RBDB =     50 
    RBPB =     50 
    RBSB =     50 
    RBPS =     50 
    RBPD =     50 
    CGSL = 3.23e-10 
    CGDL = 3.23e-10 
    CKAPPAS =    0.6 
    CKAPPAD =    0.6 
    CF = 5.478e-11 
    CLC =  1e-07 
    CLE =    0.6 
    DWC = -6.5e-08 
    DLC = 7.306e-08 
    DLCIG =  5e-09 
    DWJ =      0 
    VFBCV =     -1 
    ACDE = 0.5037 
    MOIN =      8 
    NOFF =    1.4 
    VOFFCV =  -0.02 
    DMCG = 9.9e-08 
    DMCI = 1.62e-07 
    DMDG =      0 
    DMCGT =      0 
    XGW =      0 
    XGL =      0 
    RSHG =    0.1 
    NGCON =      1 
    TCJ = 0.0008479 
    TPB = 0.001659 
    TCJSW = 0.000503 
    TPBSW = 0.002829 
    TCJSWG = 0.0002 
    TPBSWG = 0.0003037 
    SK0 =      0 
    SK1 =      0 
    SK2 =      0 
    SL =  2e-06 
    SW =  2e-06 
    K =      0 
    LCIT = -2e-10 
    LVSAT = 0.005595 
    LAT =  -0.07 
    LA0 = -9e-07 
    LAGS = 2.5e-07 
    LKETA = -3.24e-09 
    LKT2 = 1.227e-09 
    LVTH0 = -1.31e-08 
    LUA = 1.616e-16 
    LUA1 = 3.45e-17 
    LUB = -1e-25 
    LUB1 =  1e-25 
    LUC = 4.705e-18 
    LU0 = 1.215e-09 
    LDELTA = 3.23e-09 
    LETA0 = 4.292e-08 
    LETAB = 1.7e-08 
    LPCLM = 1.3e-07 
    LPDIBLC2 =  6e-10 
    LALPHA0 = 8.338e-13 
    LBETA0 = -1.837e-06 
    LAGIDL = -1.4e-16 
    LNOFF =  6e-07 
    LVOFFCV = -4e-08 
    WAT =  0.023 
    WA0 =  5e-09 
    WKETA = 3.031e-09 
    WKT1 = 1.029e-08 
    WVTH0 =  2e-09 
    WUA = -6.12e-17 
    WUB = 1.996e-26 
    WUB1 = 1.94e-25 
    WU0 =  2e-10 
    WPCLM = -1e-08 
    WAGIDL =  6e-16 
    PVSAT = -2.029e-09 
    PAT =  5e-09 
    PA0 = 9.04e-14 
    PKT1 =  8e-15 
    PK2 = -1e-16 
    PDVT1 = 5.016e-15 
    PVTH0 = -1e-15 
    PUA = 4.596e-23 
    PUA1 = 3.438e-24 
    PUB = -3.305e-32 
    PUB1 =  8e-33 
    PUC = -1.25e-24 
    PUC1 = 2.2e-24 
    PU0 = -2e-16 
    PVOFF = -2.128e-15 
    PETA0 = 1.08e-14 
    PAGIDL = -4e-22 
    TNOM =  298.1 
    CGSO = 9.5e-12 
    CGDO = 9.5e-12 
    CGBO =      0 
    XPART =      1 
    RSH =     14 
    JSS = 1.593e-07 
    JSWS = 1.013e-13 
    JSWGS = 1.53e-12 
    PBS =  0.729 
    MJS = 0.3168 
    PBSWS =   1.03 
    MJSWS = 0.1784 
    CJS = 0.001294 
    CJSWS = 6.083e-11 
    NJS = 0.9839 
    PBSWGS = 0.8317 
    MJSWGS =  0.465 
    CJSWGS = 1.698e-10 
    XTIS =      3 
    JSD = 1.593e-07 
    JSWD = 1.013e-13 
    JSWGD = 1.53e-12 
    PBD =  0.729 
    MJD = 0.3168 
    PBSWD =   1.03 
    MJSWD = 0.1784 
    CJD = 0.001294 
    CJSWD = 6.083e-11 
    NJD = 0.9839 
    PBSWGD = 0.8317 
    MJSWGD =  0.465 
    CJSWGD = 1.698e-10 
    XTID =      3 
    LMLT =      1 
    WMLT =      1 
    LINT =  4e-09 
    LL = -5e-15 
    LLC =      0 
    LLN =    0.9 
    LW =      0 
    LWC =      0 
    LWN =      1 
    LWL =      0 
    LWLC =      0 
    LMIN = 3.96e-07 
    LMAX = 0.0001 
    WINT = -2e-08 
    WL = -1.1e-14 
    WLC =      0 
    WLN =   0.98 
    WW =  9e-15 
    WWC =      0 
    WWN =   0.96 
    WWL =      0 
    WWLC =      0 
    WMIN = 2.88e-07 
    WMAX = 0.0001 
    NOIA = 5.223e+41 
    NOIB = 1.399e+26 
    NOIC =  6e+09 
    EM =  2e+09 
    EF =   1.21 
    AF =      1 
    KF =      0 
    TRS =      0 
    TRD =      0 
    TEMPMOD  =      0 
    LAMBDA   =      0 
    VTL      =  2e+05 m/s
    LC       =  5e-09 
    XN       =      3 
    LLAMBDA  =      0 
    LVTL     =      0 
    LXN      =      0 
    WLAMBDA  =      0 
    WVTL     =      0 
    WXN      =      0 
    PLAMBDA  =      0 
    PVTL     =      0 
    PXN      =      0 
    RNOIA    =  0.577 
    RNOIB    = 0.5164 
    SAREF(SA0) = 2.61e-07 m
    SBREF(SB0) = 2.61e-07 m
    WLOD     =      0 m
    KU0      =  3e-09 1/m
    KVSAT    =      1 
    KVTH0    =  4e-09 m
    TKU0     =      0 
    LLODKU0  =      1 
    WLODKU0  =      1 
    LLODVTH  =      1 
    WLODVTH  =      1 
    LKU0     =  2e-06 
    WKU0     =      0 
    PKU0     =      0 
    LKVTH0   =  7e-07 
    WKVTH0   =  3e-07 
    PKVTH0   =  2e-13 
    STK2     =      0 
    LODK2    =      1 
    STETA0   =      0 
    LODETA0  =      1 
    LXRCRG1  =      0 
    WXRCRG1  =      0 
    PXRCRG1  =      0 
    LXRCRG2  =      0 
    WXRCRG2  =      0 
    PXRCRG2  =      0 
 

    *** UCB's BSIM4.4.0 new diode model is activated. ***
    *** UCB's Diode Model Parameters ***

    JTSS         =      0 
    JTSSWS       =      0 
    JTSSWGS      =  7e-10 
    JTSD         =      0 
    JTSSWD       =      0 
    JTSSWGD      =  7e-10 
    NJTS         =     20 
    NJTSSW       =     20 
    NJTSSWG      =     20 
    XTSS         =   0.02 
    XTSSWS       =   0.02 
    XTSSWGS      =   0.02 
    XTSD         =   0.02 
    XTSSWD       =   0.02 
    XTSSWGD      =   0.02 
    TNJTS        =      0 
    TNJTSSW      =      0 
    TNJTSSWG     =      0 
    VFBSDOFF     =      0 
    LVFBSDOFF    =      0 
    WVFBSDOFF    =      0 
    PVFBSDOFF    =      0 
    LINTNOI      = -1.8e-08 
    VTSS         =     10 
    VTSD         =     10 
    VTSSWS       =     10 
    VTSSWD       =     10 
    VTSSWGS      =     10 
    VTSSWGD      =     10 
    TTDIOMOD     =      1 
 

    *** UCB's BSIM4.5.0 new model is activated. ***
    UD         =  1e+14 
    UD1        =      0 
    UP         =      0 
    LP         =  1e-08 
    TVOFF      =  0.005 
    TVFBSDOFF  =      0 
    RBPS0      =     50 
    RBPSL      =      0 
    RBPSW      =      0 
    RBPSNF     =      0 
    RBPD0      =     50 
    RBPDL      =      0 
    RBPDW      =      0 
    RBPDNF     =      0 
    RBPBX0     =    100 
    RBPBXL     =      0 
    RBPBXW     =      0 
    RBPBXNF    =      0 
    RBPBY0     =    100 
    RBPBYL     =      0 
    RBPBYW     =      0 
    RBPBYNF    =      0 
    RBSBX0     =    100 
    RBSBY0     =    100 
    RBDBX0     =    100 
    RBDBY0     =    100 
    RBSDBXL    =      0 
    RBSDBXW    =      0 
    RBSDBXNF   =      0 
    RBSDBYL    =      0 
    RBSDBYW    =      0 
    RBSDBYNF   =      0 
    LUD        =      0 
    LUD1       =      0 
    LUP        =      0 
    LLP        =      0 
    LTVOFF     =      0 
    LTVFBSDOFF =      0 
    WUD        =      0 
    WUD1       =      0 
    WUP        =      0 
    WLP        =      0 
    WTVOFF     = 6.4e-10 
    WTVFBSDOFF =      0 
    PUD        =      0 
    PUD1       =      0 
    PUP        =      0 
    PLP        =      0 
    PTVOFF     =      0 
    PTVFBSDOFF =      0 
    WEB        =     10 
    WEC        =      0 
    KVTH0WE    = -0.008 
    K2WE       =      0 
    KU0WE      = -0.004 
    SCREF      =  1e-06 
    WPEMOD     =      1 
    LKVTH0WE   = -6e-10 
    LK2WE      =      0 
    LKU0WE     =      0 
    WKVTH0WE   =  3e-10 
    WK2WE      =      0 
    WKU0WE     = -1e-10 
    PKVTH0WE   =  1e-16 
    PK2WE      =      0 
    PKU0WE     = -8e-17 
 

 
Model Name: pod33ll_ckt  

 BSIM4 Model (Level 54)

    MOBMOD = 0
    BINUNIT = 2
    PARAMCHK = 1
    CAPMOD = 2
    DIOMOD = 2
    RDSMOD = 1
    TRNQSMOD = 0
    ACNQSMOD = 0
    RBODYMOD = 0
    RGATEMOD = 0
    PERMOD = 1
    GEOMOD = 0
    RGEOMOD = 1
    FNOIMOD = 1
    TNOIMOD = 0
    IGCMOD = 0
    IGBMOD = 0
    STIMOD = 1
    VBFWDMOD = 0
    VERSION =    4.5 
    TOXREF = 6.02e-09 
    TOXE = 6.119e-09 
    TOXP = 5.979e-09 
    TOXM = 6.119e-09 
    DTOX = 1.4e-10 
    EPSROX =    3.9 
    CDSC =      0 
    CDSCB =      0 
    CDSCD =      0 
    CIT = 0.00063 
    NFACTOR =   1.05 
    XJ = 1.37e-07 
    VSAT = 8.5e+04 
    A0 =  1.495 
    AGS =  0.275 
    A1 =      0 
    A2 =      1 
    AT =  6e+04 
    KETA = -0.002248 
    NSUB =  6e+16 
    NDEP =  1e+17 
    NSD =  1e+20 
    NGATE =  1e+21 
    GAMMA1 =      0 
    GAMMA2 =      0 
    VBX =      0 
    VBM =     -3 
    XT = 1.55e-07 
    K1 =    0.6 
    KT1 = -0.1793 
    KT1L =  2e-08 
    KT2 = -0.02903 
    K2 =  -0.05 
    K3 =      0 
    K3B =    0.7 
    LPE0 =  7e-08 
    LPEB =      0 
    DVTP0 = -1e-07 
    DVTP1 =      0 
    W0 =      0 
    DVT0 =      7 
    DVT1 =   0.36 
    DVT2 =   0.01 
    DVT0W =      0 
    DVT1W =      0 
    DVT2W =      0 
    DROUT =   0.56 
    DSUB =   0.56 
    VTH0 = -0.642 
    EU =   1.67 
    UA = 2.579e-10 
    UA1 = 1.768e-09 
    UB = 1.231e-18 
    UB1 = -3.029e-18 
    UC = -2e-11 
    UC1 = 4.849e-12 
    U0 = 0.01046 
    UTE =     -1 
    VOFF = -0.132 
    VOFFL = -1.4e-08 
    MINV =  -0.08 
    FPROUT =      0 
    PDITS =      0 
    PDITSD =      0 
    PDITSL =      0 
    DELTA =  0.004 
    RDSW =    477 
    RDSWMIN =      0 
    RDWMIN =      0 
    RSWMIN =      0 
    RDW =    270 
    RSW =    270 
    PRWG =      0 
    PRWB =      0 
    PRT =      0 
    ETA0 =   0.08 
    ETAB = -0.152 
    PCLM =  0.362 
    PDIBLC1 =      0 
    PDIBLC2 = 3.06e-05 
    PDIBLCB =      0 
    PSCBE1 = 4.24e+09 
    PSCBE2 =  1e-08 
    PVAG =      0 
    WR =      1 
    DWG =      0 
    DWB =      0 
    XW = 1.23e-08 
    XWREF = 1.23e-08 
    XL = 1.36e-08 
    XLREF = 1.36e-08 
    B0 =      0 
    B1 =      0 
    ALPHA0 = -5.285e-06 
    ALPHA1 =   15.9 
    AGIDL =  5e-10 
    BGIDL =  2e+09 
    CGIDL =    0.5 
    PHIN = 0.04597 
    EGIDL =   0.37 
    AIGC = 0.0098 
    BIGC = 0.000759 
    CIGC =   0.03 
    AIGSD = 0.0098 
    BIGSD = 0.000759 
    CIGSD =   0.03 
    AIGBACC = 0.000949 
    BIGBACC = 0.00171 
    CIGBACC =  0.075 
    AIGBINV = 0.0111 
    BIGBINV = 0.000949 
    CIGBINV =  0.006 
    NIGC =      1 
    NIGBINV =      3 
    NIGBACC =      1 
    NTOX =      1 
    EIGBINV =    1.1 
    PIGCD =      1 
    POXEDGE =      1 
    XRCRG1 =     12 
    TNOIA =    1.5 
    TNOIB =    3.5 
    NTNOI =      1 
    XRCRG2 =      1 
    BETA0 =   33.6 
    IJTHDFWD =    0.1 
    IJTHSFWD =    0.1 
    IJTHDREV =    0.1 
    IJTHSREV =    0.1 
    XJBVD =      1 
    XJBVS =      1 
    BVD =   8.55 
    BVS =   8.55 
    VFB =     -1 
    GBMIN =  1e-12 
    RBDB =     50 
    RBPB =     50 
    RBSB =     50 
    RBPS =     50 
    RBPD =     50 
    CGSL = 3.23e-10 
    CGDL = 3.23e-10 
    CKAPPAS =    0.6 
    CKAPPAD =    0.6 
    CF = 5.478e-11 
    CLC =  1e-07 
    CLE =    0.6 
    DWC = -6.5e-08 
    DLC = 7.306e-08 
    DLCIG =  5e-09 
    DWJ =      0 
    VFBCV =     -1 
    ACDE = 0.5037 
    MOIN =      8 
    NOFF =    1.4 
    VOFFCV =  -0.02 
    DMCG = 9.9e-08 
    DMCI = 1.62e-07 
    DMDG =      0 
    DMCGT =      0 
    XGW =      0 
    XGL =      0 
    RSHG =    0.1 
    NGCON =      1 
    TCJ = 0.0008479 
    TPB = 0.001659 
    TCJSW = 0.000503 
    TPBSW = 0.002829 
    TCJSWG = 0.0002 
    TPBSWG = 0.0003037 
    SK0 =      0 
    SK1 =      0 
    SK2 =      0 
    SL =  2e-06 
    SW =  2e-06 
    K =      0 
    LCIT = -2e-10 
    LVSAT = 0.005595 
    LAT =  -0.07 
    LA0 = -9e-07 
    LAGS = 2.5e-07 
    LKETA = -3.24e-09 
    LKT2 = 1.227e-09 
    LVTH0 = -1.31e-08 
    LUA = 1.616e-16 
    LUA1 = 3.45e-17 
    LUB = -1e-25 
    LUB1 =  1e-25 
    LUC = 4.705e-18 
    LU0 = 1.215e-09 
    LDELTA = 3.23e-09 
    LETA0 = 4.292e-08 
    LETAB = 1.7e-08 
    LPCLM = 1.3e-07 
    LPDIBLC2 =  6e-10 
    LALPHA0 = 8.338e-13 
    LBETA0 = -1.837e-06 
    LAGIDL = -1.4e-16 
    LNOFF =  6e-07 
    LVOFFCV = -4e-08 
    WAT =  0.023 
    WA0 =  5e-09 
    WKETA = 3.031e-09 
    WKT1 = 1.029e-08 
    WVTH0 =  2e-09 
    WUA = -6.12e-17 
    WUB = 1.996e-26 
    WUB1 = 1.94e-25 
    WU0 =  2e-10 
    WPCLM = -1e-08 
    WAGIDL =  6e-16 
    PVSAT = -2.029e-09 
    PAT =  5e-09 
    PA0 = 9.04e-14 
    PKT1 =  8e-15 
    PK2 = -1e-16 
    PDVT1 = 5.016e-15 
    PVTH0 = -1e-15 
    PUA = 4.596e-23 
    PUA1 = 3.438e-24 
    PUB = -3.305e-32 
    PUB1 =  8e-33 
    PUC = -1.25e-24 
    PUC1 = 2.2e-24 
    PU0 = -2e-16 
    PVOFF = -2.128e-15 
    PETA0 = 1.08e-14 
    PAGIDL = -4e-22 
    TNOM =  298.1 
    CGSO = 9.5e-12 
    CGDO = 9.5e-12 
    CGBO =      0 
    XPART =      1 
    RSH =     14 
    JSS = 1.593e-07 
    JSWS = 1.013e-13 
    JSWGS = 1.53e-12 
    PBS =  0.729 
    MJS = 0.3168 
    PBSWS =   1.03 
    MJSWS = 0.1784 
    CJS = 0.001294 
    CJSWS = 6.083e-11 
    NJS = 0.9839 
    PBSWGS = 0.8317 
    MJSWGS =  0.465 
    CJSWGS = 1.698e-10 
    XTIS =      3 
    JSD = 1.593e-07 
    JSWD = 1.013e-13 
    JSWGD = 1.53e-12 
    PBD =  0.729 
    MJD = 0.3168 
    PBSWD =   1.03 
    MJSWD = 0.1784 
    CJD = 0.001294 
    CJSWD = 6.083e-11 
    NJD = 0.9839 
    PBSWGD = 0.8317 
    MJSWGD =  0.465 
    CJSWGD = 1.698e-10 
    XTID =      3 
    LMLT =      1 
    WMLT =      1 
    LINT =  4e-09 
    LL = -5e-15 
    LLC =      0 
    LLN =    0.9 
    LW =      0 
    LWC =      0 
    LWN =      1 
    LWL =      0 
    LWLC =      0 
    LMIN = 3.96e-07 
    LMAX = 0.0001 
    WINT = -2e-08 
    WL = -1.1e-14 
    WLC =      0 
    WLN =   0.98 
    WW =  9e-15 
    WWC =      0 
    WWN =   0.96 
    WWL =      0 
    WWLC =      0 
    WMIN = 2.88e-07 
    WMAX = 0.0001 
    NOIA = 5.223e+41 
    NOIB = 1.399e+26 
    NOIC =  6e+09 
    EM =  2e+09 
    EF =   1.21 
    AF =      1 
    KF =      0 
    TRS =      0 
    TRD =      0 
    TEMPMOD  =      0 
    LAMBDA   =      0 
    VTL      =  2e+05 m/s
    LC       =  5e-09 
    XN       =      3 
    LLAMBDA  =      0 
    LVTL     =      0 
    LXN      =      0 
    WLAMBDA  =      0 
    WVTL     =      0 
    WXN      =      0 
    PLAMBDA  =      0 
    PVTL     =      0 
    PXN      =      0 
    RNOIA    =  0.577 
    RNOIB    = 0.5164 
    SAREF(SA0) = 2.61e-07 m
    SBREF(SB0) = 2.61e-07 m
    WLOD     =      0 m
    KU0      =  3e-09 1/m
    KVSAT    =      1 
    KVTH0    =  4e-09 m
    TKU0     =      0 
    LLODKU0  =      1 
    WLODKU0  =      1 
    LLODVTH  =      1 
    WLODVTH  =      1 
    LKU0     =  2e-06 
    WKU0     =      0 
    PKU0     =      0 
    LKVTH0   =  7e-07 
    WKVTH0   =  3e-07 
    PKVTH0   =  2e-13 
    STK2     =      0 
    LODK2    =      1 
    STETA0   =      0 
    LODETA0  =      1 
    LXRCRG1  =      0 
    WXRCRG1  =      0 
    PXRCRG1  =      0 
    LXRCRG2  =      0 
    WXRCRG2  =      0 
    PXRCRG2  =      0 
 

    *** UCB's BSIM4.4.0 new diode model is activated. ***
    *** UCB's Diode Model Parameters ***

    JTSS         =      0 
    JTSSWS       =      0 
    JTSSWGS      =  7e-10 
    JTSD         =      0 
    JTSSWD       =      0 
    JTSSWGD      =  7e-10 
    NJTS         =     20 
    NJTSSW       =     20 
    NJTSSWG      =     20 
    XTSS         =   0.02 
    XTSSWS       =   0.02 
    XTSSWGS      =   0.02 
    XTSD         =   0.02 
    XTSSWD       =   0.02 
    XTSSWGD      =   0.02 
    TNJTS        =      0 
    TNJTSSW      =      0 
    TNJTSSWG     =      0 
    VFBSDOFF     =      0 
    LVFBSDOFF    =      0 
    WVFBSDOFF    =      0 
    PVFBSDOFF    =      0 
    LINTNOI      = -1.8e-08 
    VTSS         =     10 
    VTSD         =     10 
    VTSSWS       =     10 
    VTSSWD       =     10 
    VTSSWGS      =     10 
    VTSSWGD      =     10 
    TTDIOMOD     =      1 
 

    *** UCB's BSIM4.5.0 new model is activated. ***
    UD         =  1e+14 
    UD1        =      0 
    UP         =      0 
    LP         =  1e-08 
    TVOFF      =  0.005 
    TVFBSDOFF  =      0 
    RBPS0      =     50 
    RBPSL      =      0 
    RBPSW      =      0 
    RBPSNF     =      0 
    RBPD0      =     50 
    RBPDL      =      0 
    RBPDW      =      0 
    RBPDNF     =      0 
    RBPBX0     =    100 
    RBPBXL     =      0 
    RBPBXW     =      0 
    RBPBXNF    =      0 
    RBPBY0     =    100 
    RBPBYL     =      0 
    RBPBYW     =      0 
    RBPBYNF    =      0 
    RBSBX0     =    100 
    RBSBY0     =    100 
    RBDBX0     =    100 
    RBDBY0     =    100 
    RBSDBXL    =      0 
    RBSDBXW    =      0 
    RBSDBXNF   =      0 
    RBSDBYL    =      0 
    RBSDBYW    =      0 
    RBSDBYNF   =      0 
    LUD        =      0 
    LUD1       =      0 
    LUP        =      0 
    LLP        =      0 
    LTVOFF     =      0 
    LTVFBSDOFF =      0 
    WUD        =      0 
    WUD1       =      0 
    WUP        =      0 
    WLP        =      0 
    WTVOFF     = 6.4e-10 
    WTVFBSDOFF =      0 
    PUD        =      0 
    PUD1       =      0 
    PUP        =      0 
    PLP        =      0 
    PTVOFF     =      0 
    PTVFBSDOFF =      0 
    WEB        =     10 
    WEC        =      0 
    KVTH0WE    = -0.008 
    K2WE       =      0 
    KU0WE      = -0.004 
    SCREF      =  1e-06 
    WPEMOD     =      1 
    LKVTH0WE   = -6e-10 
    LK2WE      =      0 
    LKU0WE     =      0 
    WKVTH0WE   =  3e-10 
    WK2WE      =      0 
    WKU0WE     = -1e-10 
    PKVTH0WE   =  1e-16 
    PK2WE      =      0 
    PKU0WE     = -8e-17 
 

 
Model Name: pod33ll_ckt  

 BSIM4 Model (Level 54)

    MOBMOD = 0
    BINUNIT = 2
    PARAMCHK = 1
    CAPMOD = 2
    DIOMOD = 2
    RDSMOD = 1
    TRNQSMOD = 0
    ACNQSMOD = 0
    RBODYMOD = 0
    RGATEMOD = 0
    PERMOD = 1
    GEOMOD = 0
    RGEOMOD = 1
    FNOIMOD = 1
    TNOIMOD = 0
    IGCMOD = 0
    IGBMOD = 0
    STIMOD = 1
    VBFWDMOD = 0
    VERSION =    4.5 
    TOXREF = 6.02e-09 
    TOXE = 6.119e-09 
    TOXP = 5.979e-09 
    TOXM = 6.119e-09 
    DTOX = 1.4e-10 
    EPSROX =    3.9 
    CDSC =      0 
    CDSCB =      0 
    CDSCD =      0 
    CIT = 0.00063 
    NFACTOR =   1.05 
    XJ = 1.37e-07 
    VSAT = 8.5e+04 
    A0 =  1.495 
    AGS =  0.275 
    A1 =      0 
    A2 =      1 
    AT =  6e+04 
    KETA = -0.002248 
    NSUB =  6e+16 
    NDEP =  1e+17 
    NSD =  1e+20 
    NGATE =  1e+21 
    GAMMA1 =      0 
    GAMMA2 =      0 
    VBX =      0 
    VBM =     -3 
    XT = 1.55e-07 
    K1 =    0.6 
    KT1 = -0.1793 
    KT1L =  2e-08 
    KT2 = -0.02903 
    K2 =  -0.05 
    K3 =      0 
    K3B =    0.7 
    LPE0 =  7e-08 
    LPEB =      0 
    DVTP0 = -1e-07 
    DVTP1 =      0 
    W0 =      0 
    DVT0 =      7 
    DVT1 =   0.36 
    DVT2 =   0.01 
    DVT0W =      0 
    DVT1W =      0 
    DVT2W =      0 
    DROUT =   0.56 
    DSUB =   0.56 
    VTH0 = -0.642 
    EU =   1.67 
    UA = 2.579e-10 
    UA1 = 1.768e-09 
    UB = 1.231e-18 
    UB1 = -3.029e-18 
    UC = -2e-11 
    UC1 = 4.849e-12 
    U0 = 0.01046 
    UTE =     -1 
    VOFF = -0.132 
    VOFFL = -1.4e-08 
    MINV =  -0.08 
    FPROUT =      0 
    PDITS =      0 
    PDITSD =      0 
    PDITSL =      0 
    DELTA =  0.004 
    RDSW =    477 
    RDSWMIN =      0 
    RDWMIN =      0 
    RSWMIN =      0 
    RDW =    270 
    RSW =    270 
    PRWG =      0 
    PRWB =      0 
    PRT =      0 
    ETA0 =   0.08 
    ETAB = -0.152 
    PCLM =  0.362 
    PDIBLC1 =      0 
    PDIBLC2 = 3.06e-05 
    PDIBLCB =      0 
    PSCBE1 = 4.24e+09 
    PSCBE2 =  1e-08 
    PVAG =      0 
    WR =      1 
    DWG =      0 
    DWB =      0 
    XW = 1.23e-08 
    XWREF = 1.23e-08 
    XL = 1.36e-08 
    XLREF = 1.36e-08 
    B0 =      0 
    B1 =      0 
    ALPHA0 = -5.285e-06 
    ALPHA1 =   15.9 
    AGIDL =  5e-10 
    BGIDL =  2e+09 
    CGIDL =    0.5 
    PHIN = 0.04597 
    EGIDL =   0.37 
    AIGC = 0.0098 
    BIGC = 0.000759 
    CIGC =   0.03 
    AIGSD = 0.0098 
    BIGSD = 0.000759 
    CIGSD =   0.03 
    AIGBACC = 0.000949 
    BIGBACC = 0.00171 
    CIGBACC =  0.075 
    AIGBINV = 0.0111 
    BIGBINV = 0.000949 
    CIGBINV =  0.006 
    NIGC =      1 
    NIGBINV =      3 
    NIGBACC =      1 
    NTOX =      1 
    EIGBINV =    1.1 
    PIGCD =      1 
    POXEDGE =      1 
    XRCRG1 =     12 
    TNOIA =    1.5 
    TNOIB =    3.5 
    NTNOI =      1 
    XRCRG2 =      1 
    BETA0 =   33.6 
    IJTHDFWD =    0.1 
    IJTHSFWD =    0.1 
    IJTHDREV =    0.1 
    IJTHSREV =    0.1 
    XJBVD =      1 
    XJBVS =      1 
    BVD =   8.55 
    BVS =   8.55 
    VFB =     -1 
    GBMIN =  1e-12 
    RBDB =     50 
    RBPB =     50 
    RBSB =     50 
    RBPS =     50 
    RBPD =     50 
    CGSL = 3.23e-10 
    CGDL = 3.23e-10 
    CKAPPAS =    0.6 
    CKAPPAD =    0.6 
    CF = 5.478e-11 
    CLC =  1e-07 
    CLE =    0.6 
    DWC = -6.5e-08 
    DLC = 7.306e-08 
    DLCIG =  5e-09 
    DWJ =      0 
    VFBCV =     -1 
    ACDE = 0.5037 
    MOIN =      8 
    NOFF =    1.4 
    VOFFCV =  -0.02 
    DMCG = 9.9e-08 
    DMCI = 1.62e-07 
    DMDG =      0 
    DMCGT =      0 
    XGW =      0 
    XGL =      0 
    RSHG =    0.1 
    NGCON =      1 
    TCJ = 0.0008479 
    TPB = 0.001659 
    TCJSW = 0.000503 
    TPBSW = 0.002829 
    TCJSWG = 0.0002 
    TPBSWG = 0.0003037 
    SK0 =      0 
    SK1 =      0 
    SK2 =      0 
    SL =  2e-06 
    SW =  2e-06 
    K =      0 
    LCIT = -2e-10 
    LVSAT = 0.005595 
    LAT =  -0.07 
    LA0 = -9e-07 
    LAGS = 2.5e-07 
    LKETA = -3.24e-09 
    LKT2 = 1.227e-09 
    LVTH0 = -1.31e-08 
    LUA = 1.616e-16 
    LUA1 = 3.45e-17 
    LUB = -1e-25 
    LUB1 =  1e-25 
    LUC = 4.705e-18 
    LU0 = 1.215e-09 
    LDELTA = 3.23e-09 
    LETA0 = 4.292e-08 
    LETAB = 1.7e-08 
    LPCLM = 1.3e-07 
    LPDIBLC2 =  6e-10 
    LALPHA0 = 8.338e-13 
    LBETA0 = -1.837e-06 
    LAGIDL = -1.4e-16 
    LNOFF =  6e-07 
    LVOFFCV = -4e-08 
    WAT =  0.023 
    WA0 =  5e-09 
    WKETA = 3.031e-09 
    WKT1 = 1.029e-08 
    WVTH0 =  2e-09 
    WUA = -6.12e-17 
    WUB = 1.996e-26 
    WUB1 = 1.94e-25 
    WU0 =  2e-10 
    WPCLM = -1e-08 
    WAGIDL =  6e-16 
    PVSAT = -2.029e-09 
    PAT =  5e-09 
    PA0 = 9.04e-14 
    PKT1 =  8e-15 
    PK2 = -1e-16 
    PDVT1 = 5.016e-15 
    PVTH0 = -1e-15 
    PUA = 4.596e-23 
    PUA1 = 3.438e-24 
    PUB = -3.305e-32 
    PUB1 =  8e-33 
    PUC = -1.25e-24 
    PUC1 = 2.2e-24 
    PU0 = -2e-16 
    PVOFF = -2.128e-15 
    PETA0 = 1.08e-14 
    PAGIDL = -4e-22 
    TNOM =  298.1 
    CGSO = 9.5e-12 
    CGDO = 9.5e-12 
    CGBO =      0 
    XPART =      1 
    RSH =     14 
    JSS = 1.593e-07 
    JSWS = 1.013e-13 
    JSWGS = 1.53e-12 
    PBS =  0.729 
    MJS = 0.3168 
    PBSWS =   1.03 
    MJSWS = 0.1784 
    CJS = 0.001294 
    CJSWS = 6.083e-11 
    NJS = 0.9839 
    PBSWGS = 0.8317 
    MJSWGS =  0.465 
    CJSWGS = 1.698e-10 
    XTIS =      3 
    JSD = 1.593e-07 
    JSWD = 1.013e-13 
    JSWGD = 1.53e-12 
    PBD =  0.729 
    MJD = 0.3168 
    PBSWD =   1.03 
    MJSWD = 0.1784 
    CJD = 0.001294 
    CJSWD = 6.083e-11 
    NJD = 0.9839 
    PBSWGD = 0.8317 
    MJSWGD =  0.465 
    CJSWGD = 1.698e-10 
    XTID =      3 
    LMLT =      1 
    WMLT =      1 
    LINT =  4e-09 
    LL = -5e-15 
    LLC =      0 
    LLN =    0.9 
    LW =      0 
    LWC =      0 
    LWN =      1 
    LWL =      0 
    LWLC =      0 
    LMIN = 3.96e-07 
    LMAX = 0.0001 
    WINT = -2e-08 
    WL = -1.1e-14 
    WLC =      0 
    WLN =   0.98 
    WW =  9e-15 
    WWC =      0 
    WWN =   0.96 
    WWL =      0 
    WWLC =      0 
    WMIN = 2.88e-07 
    WMAX = 0.0001 
    NOIA = 5.223e+41 
    NOIB = 1.399e+26 
    NOIC =  6e+09 
    EM =  2e+09 
    EF =   1.21 
    AF =      1 
    KF =      0 
    TRS =      0 
    TRD =      0 
    TEMPMOD  =      0 
    LAMBDA   =      0 
    VTL      =  2e+05 m/s
    LC       =  5e-09 
    XN       =      3 
    LLAMBDA  =      0 
    LVTL     =      0 
    LXN      =      0 
    WLAMBDA  =      0 
    WVTL     =      0 
    WXN      =      0 
    PLAMBDA  =      0 
    PVTL     =      0 
    PXN      =      0 
    RNOIA    =  0.577 
    RNOIB    = 0.5164 
    SAREF(SA0) = 2.61e-07 m
    SBREF(SB0) = 2.61e-07 m
    WLOD     =      0 m
    KU0      =  3e-09 1/m
    KVSAT    =      1 
    KVTH0    =  4e-09 m
    TKU0     =      0 
    LLODKU0  =      1 
    WLODKU0  =      1 
    LLODVTH  =      1 
    WLODVTH  =      1 
    LKU0     =  2e-06 
    WKU0     =      0 
    PKU0     =      0 
    LKVTH0   =  7e-07 
    WKVTH0   =  3e-07 
    PKVTH0   =  2e-13 
    STK2     =      0 
    LODK2    =      1 
    STETA0   =      0 
    LODETA0  =      1 
    LXRCRG1  =      0 
    WXRCRG1  =      0 
    PXRCRG1  =      0 
    LXRCRG2  =      0 
    WXRCRG2  =      0 
    PXRCRG2  =      0 
 

    *** UCB's BSIM4.4.0 new diode model is activated. ***
    *** UCB's Diode Model Parameters ***

    JTSS         =      0 
    JTSSWS       =      0 
    JTSSWGS      =  7e-10 
    JTSD         =      0 
    JTSSWD       =      0 
    JTSSWGD      =  7e-10 
    NJTS         =     20 
    NJTSSW       =     20 
    NJTSSWG      =     20 
    XTSS         =   0.02 
    XTSSWS       =   0.02 
    XTSSWGS      =   0.02 
    XTSD         =   0.02 
    XTSSWD       =   0.02 
    XTSSWGD      =   0.02 
    TNJTS        =      0 
    TNJTSSW      =      0 
    TNJTSSWG     =      0 
    VFBSDOFF     =      0 
    LVFBSDOFF    =      0 
    WVFBSDOFF    =      0 
    PVFBSDOFF    =      0 
    LINTNOI      = -1.8e-08 
    VTSS         =     10 
    VTSD         =     10 
    VTSSWS       =     10 
    VTSSWD       =     10 
    VTSSWGS      =     10 
    VTSSWGD      =     10 
    TTDIOMOD     =      1 
 

    *** UCB's BSIM4.5.0 new model is activated. ***
    UD         =  1e+14 
    UD1        =      0 
    UP         =      0 
    LP         =  1e-08 
    TVOFF      =  0.005 
    TVFBSDOFF  =      0 
    RBPS0      =     50 
    RBPSL      =      0 
    RBPSW      =      0 
    RBPSNF     =      0 
    RBPD0      =     50 
    RBPDL      =      0 
    RBPDW      =      0 
    RBPDNF     =      0 
    RBPBX0     =    100 
    RBPBXL     =      0 
    RBPBXW     =      0 
    RBPBXNF    =      0 
    RBPBY0     =    100 
    RBPBYL     =      0 
    RBPBYW     =      0 
    RBPBYNF    =      0 
    RBSBX0     =    100 
    RBSBY0     =    100 
    RBDBX0     =    100 
    RBDBY0     =    100 
    RBSDBXL    =      0 
    RBSDBXW    =      0 
    RBSDBXNF   =      0 
    RBSDBYL    =      0 
    RBSDBYW    =      0 
    RBSDBYNF   =      0 
    LUD        =      0 
    LUD1       =      0 
    LUP        =      0 
    LLP        =      0 
    LTVOFF     =      0 
    LTVFBSDOFF =      0 
    WUD        =      0 
    WUD1       =      0 
    WUP        =      0 
    WLP        =      0 
    WTVOFF     = 6.4e-10 
    WTVFBSDOFF =      0 
    PUD        =      0 
    PUD1       =      0 
    PUP        =      0 
    PLP        =      0 
    PTVOFF     =      0 
    PTVFBSDOFF =      0 
    WEB        =     10 
    WEC        =      0 
    KVTH0WE    = -0.008 
    K2WE       =      0 
    KU0WE      = -0.004 
    SCREF      =  1e-06 
    WPEMOD     =      1 
    LKVTH0WE   = -6e-10 
    LK2WE      =      0 
    LKU0WE     =      0 
    WKVTH0WE   =  3e-10 
    WK2WE      =      0 
    WKU0WE     = -1e-10 
    PKVTH0WE   =  1e-16 
    PK2WE      =      0 
    PKU0WE     = -8e-17 
 

 
Model Name: nod33ll_ckt  

 BSIM4 Model (Level 54)

    MOBMOD = 0
    BINUNIT = 2
    PARAMCHK = 1
    CAPMOD = 2
    DIOMOD = 2
    RDSMOD = 1
    TRNQSMOD = 0
    ACNQSMOD = 0
    RBODYMOD = 0
    RGATEMOD = 0
    PERMOD = 1
    GEOMOD = 0
    RGEOMOD = 1
    FNOIMOD = 1
    TNOIMOD = 0
    IGCMOD = 0
    IGBMOD = 0
    STIMOD = 1
    VBFWDMOD = 0
    VERSION =    4.5 
    TOXREF = 5.63e-09 
    TOXE = 5.77e-09 
    TOXP = 5.874e-09 
    TOXM = 5.63e-09 
    DTOX = -1.036e-10 
    EPSROX =    3.9 
    CDSC =  5e-05 
    CDSCB = 2.002e-05 
    CDSCD =      0 
    CIT = 0.0007521 
    NFACTOR =  1.414 
    XJ = 1.42e-07 
    VSAT = 9.4e+04 
    A0 =      1 
    AGS = 0.3474 
    A1 =      0 
    A2 =      1 
    AT = 1.38e+04 
    KETA = -0.003203 
    NSUB =  6e+16 
    NDEP = 1.3e+17 
    NSD =  1e+20 
    NGATE = 2.27e+22 
    GAMMA1 =      0 
    GAMMA2 =      0 
    VBX =      0 
    VBM =     -3 
    XT = 1.55e-07 
    K1 = 0.6381 
    KT1 = -0.173 
    KT1L = 3.417e-09 
    KT2 = -0.03838 
    K2 = 0.00301 
    K3 = -2.907 
    K3B =      0 
    LPE0 = 5.562e-08 
    LPEB =      0 
    DVTP0 =      0 
    DVTP1 =      0 
    W0 = -9.093e-08 
    DVT0 = 0.6583 
    DVT1 = 0.1013 
    DVT2 =      0 
    DVT0W = 0.5231 
    DVT1W = 1.18e+06 
    DVT2W =  1.064 
    DROUT =   0.56 
    DSUB =    0.7 
    VTH0 = 0.6275 
    EU =   1.67 
    UA = -9.715e-10 
    UA1 = 2.558e-09 
    UB = 2.378e-18 
    UB1 = -2.418e-18 
    UC = 1.209e-10 
    UC1 = -1e-12 
    U0 = 0.03266 
    UTE = -0.9763 
    VOFF = -0.1843 
    VOFFL = 9.667e-10 
    MINV = -0.6978 
    FPROUT =      0 
    PDITS =      0 
    PDITSD =      0 
    PDITSL =      0 
    DELTA = 0.003263 
    RDSW =    200 
    RDSWMIN =      0 
    RDWMIN =      0 
    RSWMIN =      0 
    RDW =  162.8 
    RSW =  162.8 
    PRWG =      0 
    PRWB =  0.028 
    PRT =      0 
    ETA0 =  0.118 
    ETAB = -0.1213 
    PCLM =  0.348 
    PDIBLC1 = 0.02463 
    PDIBLC2 = 0.0001766 
    PDIBLCB =  0.189 
    PSCBE1 = 4.24e+08 
    PSCBE2 = 3.491e-08 
    PVAG =      1 
    WR =      1 
    DWG = 8.451e-09 
    DWB = 1.096e-13 
    XW = 9.3e-09 
    XWREF = 9.3e-09 
    XL =  4e-08 
    XLREF =  4e-08 
    B0 = 5.953e-08 
    B1 =      0 
    ALPHA0 = 3.657e-08 
    ALPHA1 =  9.581 
    AGIDL = 9.423e-09 
    BGIDL = 2.636e+09 
    CGIDL =  130.1 
    PHIN =   0.15 
    EGIDL =  0.496 
    AIGC = 0.0136 
    BIGC = 0.00171 
    CIGC =  0.075 
    AIGSD = 0.0136 
    BIGSD = 0.00171 
    CIGSD =  0.075 
    AIGBACC = 0.000949 
    BIGBACC = 0.00171 
    CIGBACC =  0.075 
    AIGBINV = 0.0111 
    BIGBINV = 0.000949 
    CIGBINV =  0.006 
    NIGC =      1 
    NIGBINV =      3 
    NIGBACC =      1 
    NTOX =      1 
    EIGBINV =    1.1 
    PIGCD =      1 
    POXEDGE =      1 
    XRCRG1 =     12 
    TNOIA =    1.5 
    TNOIB =    3.5 
    NTNOI =      1 
    XRCRG2 =      1 
    BETA0 =  22.91 
    IJTHDFWD =    0.1 
    IJTHSFWD =    0.1 
    IJTHDREV =    0.1 
    IJTHSREV =    0.1 
    XJBVD =      1 
    XJBVS =      1 
    BVD =   9.45 
    BVS =   9.45 
    VFB =     -1 
    GBMIN =  1e-12 
    RBDB =     50 
    RBPB =     50 
    RBSB =     50 
    RBPS =     50 
    RBPD =     50 
    CGSL = 3.515e-10 
    CGDL = 3.515e-10 
    CKAPPAS =    0.6 
    CKAPPAD =    0.6 
    CF = 5.607e-11 
    CLC =  1e-07 
    CLE =    0.6 
    DWC = -6.5e-08 
    DLC = 8.665e-08 
    DLCIG =      0 
    DWJ =      0 
    VFBCV =     -1 
    ACDE = 0.2864 
    MOIN =  5.099 
    NOFF =  1.954 
    VOFFCV = -0.1431 
    DMCG = 9.9e-08 
    DMCI = 1.62e-07 
    DMDG =      0 
    DMCGT =      0 
    XGW =      0 
    XGL =      0 
    RSHG =    0.1 
    NGCON =      1 
    TCJ = 0.0008075 
    TPB = 0.001579 
    TCJSW = 0.0003398 
    TPBSW = 0.0006488 
    TCJSWG = 0.0005936 
    TPBSWG = 0.0003669 
    SK0 =      0 
    SK1 =      0 
    SK2 =      0 
    SL =  2e-06 
    SW =  2e-06 
    K =      0 
    LCIT = -5.294e-11 
    LVSAT = -0.008723 
    LKT1 = 1.1e-09 
    LKT2 =  4e-09 
    LK2 = -6.36e-09 
    LVTH0 = 5.753e-09 
    LUA = 5.684e-16 
    LUA1 = 5.971e-16 
    LUB = -1.843e-27 
    LUB1 = -5.981e-25 
    LUC = 1.868e-17 
    LUC1 = -2e-17 
    LU0 = 6.35e-09 
    LUTE = -3.976e-08 
    LDELTA = 1.069e-08 
    LPCLM = 6.797e-08 
    LALPHA1 = 7.643e-07 
    LBETA0 = 2.298e-08 
    LAGIDL = 3.57e-15 
    LCGIDL = 1.53e-05 
    LNOFF = 1.3e-07 
    LVOFFCV = -1.515e-08 
    WVSAT = -0.01913 
    WAGS = 4.368e-09 
    WKT1 = -2e-09 
    WVTH0 = 4.311e-09 
    WUA1 = -1.82e-16 
    WUB = -2.145e-25 
    WUB1 = -2e-26 
    WUC = -2.829e-17 
    WU0 = -3.692e-09 
    WUTE = -3.645e-08 
    WALPHA1 = 3.099e-07 
    WAGIDL = 2.905e-14 
    PCIT = -2.632e-18 
    PVSAT = 3.03e-09 
    PAT = -5.735e-11 
    PAGS = 2.156e-13 
    PKT1 = -5.122e-16 
    PK2 = 2.241e-15 
    PK3 = 2.24e-13 
    PPE0 = 5.024e-21 
    PDVT0 = -1.376e-14 
    PVTH0 = -1.177e-14 
    PUA = 4.702e-23 
    PUA1 = -7.425e-24 
    PUB = -2.178e-31 
    PUB1 = 2.525e-31 
    PUC = -1.091e-23 
    PUC1 =  1e-23 
    PU0 = -2.383e-15 
    PUTE = 2.392e-14 
    PETA0 = -3.61e-15 
    PPCLM = 2.4e-14 
    PBETA0 = -5.44e-14 
    PAGIDL = 1.367e-20 
    TNOM =  298.1 
    CGSO = 1.425e-12 
    CGDO = 1.425e-12 
    CGBO =      0 
    XPART =      1 
    RSH =   13.2 
    JSS = 2.308e-07 
    JSWS = 1.013e-13 
    JSWGS = 5.6e-14 
    PBS = 0.5832 
    MJS = 0.2363 
    PBSWS = 0.3922 
    MJSWS = 0.2203 
    CJS = 0.001388 
    CJSWS = 8.451e-11 
    NJS = 0.9807 
    PBSWGS =  0.976 
    MJSWGS =    0.6 
    CJSWGS = 1.434e-10 
    XTIS =      3 
    JSD = 2.308e-07 
    JSWD = 1.013e-13 
    JSWGD = 5.6e-14 
    PBD = 0.5832 
    MJD = 0.2363 
    PBSWD = 0.3922 
    MJSWD = 0.2203 
    CJD = 0.001388 
    CJSWD = 8.451e-11 
    NJD = 0.9807 
    PBSWGD =  0.976 
    MJSWGD =    0.6 
    CJSWGD = 1.434e-10 
    XTID =      3 
    LMLT =      1 
    WMLT =      1 
[...]
    WTVOFF     = 6.4e-10 
    WTVFBSDOFF =      0 
    PUD        =      0 
    PUD1       =      0 
    PUP        =      0 
    PLP        =      0 
    PTVOFF     =      0 
    PTVFBSDOFF =      0 
    WEB        =     10 
    WEC        =      0 
    KVTH0WE    = -0.008 
    K2WE       =      0 
    KU0WE      = -0.004 
    SCREF      =  1e-06 
    WPEMOD     =      1 
    LKVTH0WE   = -6e-10 
    LK2WE      =      0 
    LKU0WE     =      0 
    WKVTH0WE   =  3e-10 
    WK2WE      =      0 
    WKU0WE     = -1e-10 
    PKVTH0WE   =  1e-16 
    PK2WE      =      0 
    PKU0WE     = -8e-17 
 

  **info** (/export/home/wllv/shzhang/Multi-fidelity/code/NAR_BO/test_bench/pump_charge/circuit/tmp/worker.6/netlist:739) DC voltage reset to initial transient source value              in source        0:vdn                 new dc=  0.0000D+00
  **warning** (/export/home/wllv/shzhang/Multi-fidelity/code/NAR_BO/test_bench/pump_charge/circuit/tmp/worker.6/netlist:737) Capacitance of    1.000E+09 for c0 is too high. Please verify capacitance value.
 
      
 **info** set option symb=1 internally to help for convergence.
 *****************************************************************
 ******  option summary
 ******
 runlvl  = 3         bypass  = 2         

 **info** dc convergence failure, 
 resetting dcon option to 1 and retrying

 **info** dc convergence successful
 you can increase the efficiency of the
 operating point calculation by setting dcon= 1
 in the .option statement
1****** HSPICE -- D-2010.03 64-BIT (Feb 23 2010) linux ******                   
 ******  
 * msp generated netlist file

  ******  operating point information tnom=  25.000 temp=  25.000 *****
 ***** operating point status is all       simulation time is     0.     
     node    =voltage       node    =voltage       node    =voltage

 + 0:dn_net  =   0.       0:dnb_net =   0.       0:i10u_net=   1.7971 
 + 0:i5u_net =   1.0313   0:up_net  =   0.       0:upb_net =   0.     
 + 0:vcp_net =   2.2000   0:vdd33_ne=   3.6300   1:nb2     = 802.4745m
 + 1:net0119 = 200.0758m  1:net0124 = 201.6964m  1:net0149 = 802.4745m
 + 1:net0153 = 802.4745m  1:net35   =   3.4787   1:net47   =   3.4781 
 + 1:net58   = 201.2284m  1:net62   = 201.7639m  1:net78   =   0.     
 + 1:net79   =   3.6300   1:net91   =   1.8685   1:net98   =   2.4513 
 + 1:pb1     =   2.6720   1:pb2     =   2.8090   1:quench  =   2.1802 
 + 2:n78     = 909.0902m  2:n79     =  32.2100m  2:net18   =   2.9732 


 ****  voltage sources

 subckt                                                              
 element   0:v0        0:vdn       0:vdnb      0:vupb      0:vup     
  volts       3.6300      0.          0.          0.          0.     
  current  -113.9054u     0.          0.          0.          0.     
  power     413.4766u     0.          0.          0.          0.     

 subckt    xi0         xi0       
 element   1:vlower    1:vupper  
  volts       0.          0.     
  current    40.0287u    40.1819u
  power       0.          0.     

     total voltage source power dissipation=  413.4766u       watts



 ***** current sources

 subckt                          
 element   0:i10       0:i5      
  volts       1.8329      2.5987 
  current    10.0000u     5.0000u
  power     -18.3291u   -12.9935u


     total current source power dissipation= -31.3226u       watts


 **** mosfets


 subckt    xi0.xnm31   xi0.xnm30   xi0.xpm29   xi0.xpm22   xi0.xpm11 
 element   3:m1        4:m1        5:m1        6:m1        7:m1      
 model     3:nod33ll_  3:nod33ll_  5:pod33ll_  5:pod33ll_  7:pod33ll_
 region        Cutoff      Cutoff      Cutoff      Cutoff    Saturati
  id        144.0980f   142.9211f    -4.3303f    -4.3065f   -10.0322u
  ibs      -5.148e-24  -5.106e-24   1.349e-25   1.345e-25   431.7901a
  ibd        -1.0313p  -802.4748f   985.7284f   841.8995f   305.1269f
  vgs         0.          0.          0.          0.       -821.0009m
  vds         1.0313    802.4745m  -958.0048m  -821.0009m  -151.2694m
  vbs         0.          0.          0.          0.          0.     
  vth       663.4726m   663.4727m  -671.9415m  -671.9415m  -677.7176m
  vdsat      40.4646m    40.4646m   -44.6619m   -44.6619m  -179.4320m
  vod      -663.4726m  -663.4727m   671.9415m   671.9415m  -143.2834m
  beta        1.2966m     1.2966m   468.4211u   468.4211u   815.7847u
  gam eff   638.0600m   638.0600m   600.0000m   600.0000m   600.0000m
  gm          4.1059p     4.0723p   133.5755f   132.8425f    93.4408u
  gds         4.6646f     5.7133f   169.6339a   177.5658a    21.3148u
  gmb         1.5078p     1.4954p    42.3669f    42.1342f    25.7501u
  cdtot       1.9298f     2.0604f     4.1796f     4.3399f    18.7850f
  cgtot       7.6337f     7.7093f    18.0056f    18.0874f    48.0857f
  cstot       3.1883f     3.1883f     6.4929f     6.4929f    54.6568f
  cbtot       7.5039f     7.5588f    19.0834f    19.1618f    30.6870f
  cgs         1.7435f     1.7435f     3.1259f     3.1259f    35.7408f
  cgd       883.5761a   959.1921a     1.6798f     1.7616f     8.3852f



 subckt    xi0.xpm12   xi0.xpm8    xi0.xpm10   xi0.xpm3    xi0.xpm1  
 element   8:m1        9:m1       10:m1       11:m1       12:m1      
 model     8:pod33ll_  9:pod33ll_ 10:pod33ll_ 11:pod33ll_ 11:pod33ll_
 region      Saturati    Saturati    Saturati      Linear      Linear
  id        -40.1819u   -40.1819u   -10.0322u   -20.7073u   -19.3216u
  ibs         1.7294f     1.2374p   308.0770f   256.4530f   275.9982f
  ibd         1.2256p     9.8523p     1.6945p   579.8546f   580.1647f
  vgs      -821.0009m  -806.1077m  -806.7354m    -2.2000     -2.1802 
  vds      -151.8972m    -1.0268   -669.7315m  -331.5447m  -311.7416m
  vbs         0.        151.8972m   151.2694m   251.3030m   271.1061m
  vth      -677.7176m  -716.3055m  -716.1508m  -733.8459m  -738.3297m
  vdsat    -179.4317m  -138.5652m  -139.1387m    -1.3303     -1.3098 
  vod      -143.2833m   -89.8022m   -90.5846m    -1.4662     -1.4419 
  beta        3.2631m     5.5011m     1.3752m    50.7372u    50.8530u
  gam eff   600.0000m   600.0000m   600.0000m   600.0000m   600.0000m
  gm        374.8601u   530.5986u   132.1613u    12.8244u    12.1273u
  gds        84.1007u     1.1711u   372.5824n    55.0588u    55.0829u
  gmb       103.2913u   132.1414u    32.9240u     4.5562u     4.2473u
  cdtot      74.7759f    48.7136f    14.6281f     7.6673f     7.7239f
  cgtot     192.2381f   299.7108f    76.9840f     8.1357f     8.1403f
  cstot     206.4200f   319.9252f    82.9607f     7.9285f     7.9211f
  cbtot     110.5462f   142.1957f    38.9190f     2.8755f     2.8664f
  cgs       142.9977f   238.6539f    59.7705f     4.5215f     4.4923f
  cgd        33.3750f    25.6549f     8.3865f     3.5600f     3.5910f



 subckt    xi0.xpm2    xi0.xpm4    xi0.xnm5    xi0.xnm6    xi0.xnm7  
 element  13:m1       14:m1       15:m1       16:m1       17:m1      
 model    11:pod33ll_ 11:pod33ll_ 15:nod33ll_ 15:nod33ll_ 15:nod33ll_
 region        Linear      Linear      Cutoff      Cutoff      Cutoff
  id        -20.7843u   -19.3976u     0.          0.          0.     
  ibs         4.6396f     4.3301f    -1.8685p    -2.2000p    -1.8685p
  ibd       267.0375f   247.4932f    -2.2000p    -2.4513p    -2.1802p
  vgs        -2.4513     -2.4513     -1.8685     -2.2000     -1.8685 
  vds      -271.1061m  -251.3030m   331.5447m   251.3030m   311.7416m
  vbs         0.          0.         -1.8685     -2.2000     -1.8685 
  vth      -671.1708m  -671.0874m     1.1076      1.1693      1.1076 
  vdsat      -1.5992     -1.5996     44.3824m    44.7880m    44.3824m
  vod        -1.7801     -1.7802     -2.9760     -3.3693     -2.9760 
  beta       49.2962u    49.2945u   513.4643u   510.4717u   513.4643u
  gam eff   600.0000m   600.0000m   638.0600m   638.0600m   638.0600m
  gm          9.4035u     8.6940u     0.          0.          0.     
  gds        71.9465u    73.0419u     0.          0.          0.     
  gmb         4.4695u     4.1565u     0.          0.          0.     
  cdtot       8.3873f     8.4584f   990.3492a   960.2129a   992.9059a
  cgtot       8.2240f     8.2295f     6.0668f     6.0299f     6.0681f
  cstot       8.3528f     8.3660f     1.0374f   990.3492a     1.0374f
  cbtot       3.2071f     3.2222f     6.2271f     6.1872f     6.2284f
  cgs         4.4431f     4.4188f   478.8987a   455.9287a   478.8987a
  cgd         3.7924f     3.8227f   455.2446a   441.0277a   456.4655a



 subckt    xi0.xnm9    xi0.xnm14   xi0.xnm18   xi0.xnm21   xi0.xnm23 
 element  18:m1       19:m1       20:m1       21:m1       22:m1      
 model    15:nod33ll_ 19:nod33ll_ 20:nod33ll_ 21:nod33ll_ 19:nod33ll_
 region        Cutoff    Saturati    Saturati    Saturati    Saturati
  id          0.         10.0105u    40.0287u     5.0050u    10.0000u
  ibs        -2.1802p  -403.9944f    -1.6117p  -201.9297f  -400.6177f
  ibd        -2.4513p    -5.6175p   -14.9457p    -2.6717p    -1.6045p
  vgs        -2.1802    829.5327m   830.0682m   829.6002m   831.2208m
  vds       271.1061m     2.6072      1.6672      2.4703    602.3987m
  vbs        -2.1802   -201.7639m  -201.2284m  -201.6964m  -200.0758m
  vth         1.1657    715.1300m   714.9684m   715.1097m   714.6205m
  vdsat      44.7653m   155.1927m   155.5976m   155.2437m   156.4706m
  vod        -3.3459    114.4026m   115.0998m   114.4905m   116.6003m
  beta      510.6364u   841.5844u     3.3662m   420.7902u   841.4847u
  gam eff   638.0600m   638.0600m   638.0600m   638.0600m   638.0600m
  gm          0.         88.6294u   353.9015u    44.3059u    88.0196u
  gds         0.         58.6385n   334.2590n    30.4649n   238.7954n
  gmb         0.         26.4960u   105.8085u    13.2455u    26.3240u
  cdtot     960.2129a     2.2329f    10.7365f     1.3854f     4.5122f
  cgtot       6.0311f    51.0479f   205.5356f    25.5397f    52.9485f
  cstot     992.9059a    57.1844f   226.6481f    28.5937f    57.2325f
  cbtot       6.1885f    19.4730f    76.2608f     9.9911f    19.8986f
  cgs       457.1555a    45.9723f   183.9943f    22.9877f    46.0860f
  cgd       441.0277a     1.1582f     5.8963f   593.5998a     2.9797f



 subckt    xi0.xnm15   xi0.xnm17   xi0.xnm20   xi0.xnm24   xi0.xnm33 
 element  23:m1       24:m1       25:m1       26:m1       27:m1      
 model    23:nod33ll_ 24:nod33ll_ 25:nod33ll_ 23:nod33ll_ 27:nod33ll_
 region      Saturati    Saturati    Saturati    Saturati      Linear
  id         10.0105u    40.0287u     5.0050u    10.0000u  -158.9692f
  ibs      -600.6479a    -2.4018f  -300.3116a  -600.0204a  -802.4747f
  ibd      -402.9242f    -1.6074p  -201.3949f  -399.5487f  -802.4747f
  vgs       802.4745m   802.4745m   802.4745m   802.4745m   994.6166m
  vds       201.7639m   201.2284m   201.6964m   200.0758m    -9.9918n
  vbs         0.          0.          0.          0.       -802.4745m
  vth       650.0545m   650.0545m   650.0545m   650.0544m   870.8725m
  vdsat     174.9086m   174.9087m   174.9086m   174.9089m   165.9417m
  vod       152.4200m   152.4200m   152.4200m   152.4201m   123.7441m
  beta      656.9704u     2.6279m   328.4852u   656.9703u   107.4152u
  gam eff   638.0600m   638.0600m   638.0600m   638.0600m   638.0600m
  gm         76.4869u   305.6953u    38.2395u    76.2854u   808.8691f
  gds         6.0933u    24.6832u     3.0515u     6.3413u    15.9415u
  gmb        24.9894u    99.8788u    12.4935u    24.9265u   203.9383f
  cdtot      10.6040f    42.6662f     5.7147f    10.8031f    69.2861f
  cgtot      43.7060f   174.8898f    21.8540f    43.7583f    72.7529f
  cstot      46.5642f   183.3748f    23.2824f    46.5774f    73.1666f
  cbtot      17.9476f    68.9053f     9.3828f    17.9581f    18.3342f
  cgs        36.0533f   144.1911f    18.0263f    36.0357f    36.2562f
  cgd         5.2217f    20.9941f     2.6125f     5.3072f    36.7281f



 subckt    xi0.xnm32   xi0.xnm27   xi0.xnm13   xi0.xnm25   xi0.xpm19 
 element  28:m1       29:m1       30:m1       31:m1       32:m1      
 model    27:nod33ll_ 29:nod33ll_ 30:nod33ll_ 31:nod33ll_ 32:pod33ll_
 region        Linear      Linear    Saturati    Saturati    Saturati
  id       -175.0254f     0.          5.0000u    10.0000u    -5.0109u
  ibs      -802.4747f     0.       -350.6938a    -1.6062p   251.4379a
  ibd      -802.4747f     0.         -1.0309p    -3.5929p   974.8732f
  vgs       994.6166m   802.4745m     1.0313    994.6166m  -958.0048m
  vds       -11.0010n     0.          1.0313    994.6166m  -958.0048m
  vbs      -802.4745m     0.          0.       -802.4745m     0.     
  vth       870.8725m   645.9954m   641.0361m   873.4346m  -654.9821m
  vdsat     165.9417m   177.6272m   341.7453m   162.9141m  -279.8517m
  vod       123.7441m   156.4791m   390.2605m   121.1820m  -303.0227m
  beta      107.4152u   419.1401u    73.9051u   763.0095u   117.3349u
  gam eff   638.0600m   638.0600m   638.0600m   638.0600m   600.0000m
  gm        890.5665f     0.         23.0192u    85.7817u    30.1049u
  gds        15.9415u     0.         22.7876n   352.9906n    48.0644n
  gmb       224.5364f     0.          7.2465u    20.6603u     7.8853u
  cdtot      69.2861f   386.3473f     1.5094f     2.0330f     4.2503f
  cgtot      72.7529f   359.3189f    65.0727f     9.0306f    55.3732f
  cstot      73.1666f   369.0628f    74.4475f    10.1682f    61.0865f
  cbtot      18.3342f   131.8827f    23.1793f     4.7138f    21.7602f
  cgs        36.2562f   182.1936f    60.4791f     7.5353f    48.9928f
  cgd        36.7281f   177.6739f   936.2668a     1.0528f     1.9515f



 subckt    xi0.xnm26   xi0.xpm28   xi0.xnm34   xi0.xi40.x  xi0.xi40.x
 element  33:m1       34:m1       35:m1       36:m1       37:m1      
 model    33:nod33ll_ 34:pod33ll_ 35:nod33ll_ 36:pod33ll_ 36:pod33ll_
 region        Linear      Linear      Linear    Saturati    Saturati
  id          0.          0.          0.         -7.8856u    -6.4070u
  ibs         0.          0.          0.        394.7286a   320.7132a
  ibd         0.          0.          0.          3.2203p    13.0244p
  vgs         1.0313   -821.0009m     3.6300   -792.9941m  -773.1909m
  vds         0.          0.          0.       -792.9941m    -2.9410 
  vbs         0.          0.          0.          0.          0.     
  vth       644.6659m  -646.9443m   646.7545m  -661.7042m  -661.6992m
  vdsat     340.3939m  -169.6199m     2.7734   -153.9496m  -139.5441m
  vod       386.6307m  -174.0566m     2.9832   -131.2899m  -111.4917m
  beta      201.7437u    74.7979u   932.8709u   737.0064u   738.5633u
  gam eff   638.0600m   600.0000m   638.0600m   600.0000m   600.0000m
  gm          0.          0.          0.         88.8166u    78.2640u
  gds         0.          0.          0.        137.1914n    56.0409n
  gmb         0.          0.          0.         23.8673u    21.0599u
  cdtot     235.3485f   301.8328f     1.0185p    18.3751f    11.1728f
  cgtot     218.2335f   281.3283f   937.8439f   137.8497f   130.6385f
  cstot     224.6975f   280.1570f   969.3417f   156.8289f   153.1809f
  cbtot      75.8698f    94.8195f   303.4010f    71.8234f    69.2005f
  cgs       113.2962f   136.7300f   504.4019f   114.5160f   110.9211f
  cgd       108.5792f   136.0063f   467.4610f     7.7904f     3.3079f



 subckt    xi0.xi40.x  xi0.xi40.x  xi0.xi40.x  xi0.xi40.x  xi0.xi40.x
 element  38:m1       39:m1       40:m1       41:m1       42:m1      
 model    38:nod33ll_ 39:nod33ll_ 40:pod33ll_ 41:pod33ll_ 42:pod33ll_
 region      Saturati      Linear      Linear    Saturati    Saturati
  id          9.3470u     6.4091u     0.        -29.3827u   -14.2947u
  ibs      -811.6973a  -556.5638a     0.          1.5444f   751.3726a
  ibd        -4.3595p  -192.7040f     0.         29.5123p     3.3256p
  vgs       909.0902m   909.0902m  -821.0009m  -821.0009m  -821.0009m
  vds         2.1802     32.2100m     0.         -2.7209   -656.8091m
  vbs         0.          0.          0.          0.          0.     
  vth       643.1450m   643.0406m  -653.8700m  -664.4389m  -664.4378m
  vdsat     249.3014m   249.5849m  -172.5455m  -175.8768m  -175.8808m
  vod       265.9451m   266.0495m  -167.1309m  -156.5620m  -156.5631m
  beta      265.8752u   797.6063u   161.9918u     2.0025m     1.0012m
  gam eff   638.0600m   638.0600m   600.0000m   600.0000m   600.0000m
  gm         56.3065u    22.4496u     0.        295.8561u   144.3482u
  gds        38.8426n   185.8684u     0.        276.0587n   320.5768n
  gmb        18.0486u     7.6259u     0.         79.6576u    38.8658u
  cdtot       1.6629f   191.3577f   118.9660f    28.1485f    25.3301f
  cgtot      47.9741f   184.7819f   108.7473f   285.2293f   148.6160f
  cstot      56.0333f   189.0186f   110.1853f   335.8329f   167.8505f
  cbtot      19.5086f    66.0025f    42.6061f   147.7950f    79.1580f
  cgs        44.2019f   100.5609f    52.5125f   246.5028f   123.3409f
  cgd       707.4168a    85.8299f    52.8431f     8.1756f    10.0292f



 subckt    xi0.xi40.x
 element  43:m1      
 model    43:pod33ll_
 region      Saturati
  id        -29.3856u
  ibs       714.1961a
  ibd         1.8821p
  vgs      -876.8801m
  vds      -909.0902m
  vbs         0.     
  vth      -673.7925m
  vdsat    -224.5267m
  vod      -203.0876m
  beta        1.2495m
  gam eff   600.0000m
  gm        244.5289u
  gds       767.0973n
  gmb        66.7062u
  cdtot      13.9603f
  cgtot      92.7826f
  cstot     104.0863f
  cbtot      44.5596f
  cgs        76.5481f
  cgd         7.7957f



 ******  
 * msp generated netlist file

  ******  transient analysis tnom=  25.000 temp=  25.000 *****
   up_imin= -3.0956E-05    at=  2.0010E-08
               from=  2.0000E-08    to=  1.0000E-07
   up_iavg=  4.0198E-05  from=  2.0000E-08     to=  1.8000E-07
   up_imax=  9.7257E-05    at=  2.0020E-08
               from=  2.0000E-08    to=  1.0000E-07
   lo_imin=  3.0567E-05    at=  9.0012E-08
               from=  2.0000E-08    to=  1.0000E-07
   lo_iavg=  4.0028E-05  from=  2.0000E-08     to=  1.8000E-07
   lo_imax=  4.4855E-05    at=  7.0005E-08
               from=  2.0000E-08    to=  1.0000E-07

          ***** job concluded
1****** HSPICE -- D-2010.03 64-BIT (Feb 23 2010) linux ******                   
 ******  
 * msp generated netlist file

  ******  job statistics summary tnom=  25.000 temp=  25.000 *****
 
 
 ******  Machine Information  ******
 CPU:
 model name	: Intel(R) Xeon(R) CPU E7- 8837  @ 2.67GHz
 cpu MHz	: 2661.000
 
 OS:
 Linux version 2.6.32-220.el6.x86_64 (mockbuild@x86-004.build.bos.redhat.com) (g
 cc version 4.4.5 20110214 (Red Hat 4.4.5-6) (GCC) ) #1 SMP Wed Nov 9 08:03:13 E
 ST 2011


  ******  HSPICE Threads Information  ******

  Command Line Threads Count                  :     1
  Available CPU Count                         :    64
  Actual Model Evaluation(Load) Threads Count :     1
  Actual Solver Threads Count                 :     1


  ******  Circuit Statistics  ******
  # nodes       =     110 # elements   =      51
  # resistors   =       0 # capacitors =       1 # inductors   =       0
  # mutual_inds =       0 # vccs       =       0 # vcvs        =       0
  # cccs        =       0 # ccvs       =       0 # volt_srcs   =       7
  # curr_srcs   =       2 # diodes     =       0 # bjts        =       0
  # jfets       =       0 # mosfets    =      41 # U elements  =       0
  # T elements  =       0 # W elements =       0 # B elements  =       0
  # S elements  =       0 # P elements =       0 # va device   =       0


  ******  Runtime Statistics (seconds)  ******

  analysis           time    # points   tot. iter  conv.iter
  op point           0.06           1         290
  transient          0.27      100001        1449         581 rev=        17
  readin             0.12
  errchk             0.04
  setup              0.00
  output             0.00


           total memory used                878 kbytes
           total cpu time            0.50 seconds
           total elapsed time        2.10 seconds
           job started at     22:49:23 10/22/2018
           job ended   at     22:49:25 10/22/2018


 lic: Release hspice token(s) 
