$DATA1 SOURCE='HSPICE' VERSION='D-2010.03 64-BIT'
.TITLE '* msp generated netlist file'
 up_imin          up_iavg          up_imax          lo_imin           
 lo_iavg          lo_imax          temper           alter#            
  3.400e-05        4.012e-05        4.583e-05        3.821e-05        
  4.001e-05        4.074e-05         25.0000           1.0000         
