 ****** HSPICE -- D-2010.03 64-BIT (Feb 23 2010) linux ******                   
  Copyright (C) 2010 Synopsys, Inc. All Rights Reserved.                        
  Unpublished-rights reserved under US copyright laws.
  This program is protected by law and is subject to the 
  terms and conditions of the license agreement from Synopsys.
  Use of this program is your acceptance to be bound by the 
  license agreement. HSPICE is the trademark of Synopsys, Inc.
  Input File: /export/home/wllv/shzhang/Multi-fidelity/code/NAR_BO/test_bench/pu
 lic:  
 lic: FLEXlm: v8.5b 
 lic: USER:   wllv                 HOSTNAME: lnode14 
 lic: HOSTID: 00e081d2b6ed         PID:      11270 
 lic: Using FLEXlm license file: 
 lic: /export/home/wllv/mysoft/hspice/license.dat 
 lic: Checkout 1 hspice 
 lic: License/Maintenance for hspice will expire on 31-dec-2020/2007.9 
 lic: NODE LOCKED license on hostid 00e081d2b6ed 
 lic:   
  **warning** (/export/home/svnhome/process/smic.40//hspice/v1p4/l0040ll_v1p4_1r.mdl:1050) Model nod33ll_ckt device geometries will not be checked against the limits set by lmin, lmax, wmin and wmax. To enable this check, add a period(.) to the model name(i.e. enable model selector).
1****** HSPICE -- D-2010.03 64-BIT (Feb 23 2010) linux ******                   
 ******  
 * msp generated netlist file

  ******  circuit name directory
 circuit number to circuit name directory
   number circuitname                     definition         multiplier
        0 main circuit
        1 xi0.                            pll_chargepump     1.00 
        2 xi0.xi40.                       pll_quench_v33     1.00 
        3 xi0.xnm31.                      nod33ll_ckt        1.00 
        4 xi0.xnm30.                      nod33ll_ckt        1.00 
        5 xi0.xpm29.                      pod33ll_ckt        1.00 
        6 xi0.xpm22.                      pod33ll_ckt        1.00 
        7 xi0.xpm11.                      pod33ll_ckt        2.00 
        8 xi0.xpm12.                      pod33ll_ckt        8.00 
        9 xi0.xpm8.                       pod33ll_ckt        8.00 
       10 xi0.xpm10.                      pod33ll_ckt        2.00 
       11 xi0.xpm3.                       pod33ll_ckt        1.00 
       12 xi0.xpm1.                       pod33ll_ckt        1.00 
       13 xi0.xpm2.                       pod33ll_ckt        1.00 
       14 xi0.xpm4.                       pod33ll_ckt        1.00 
       15 xi0.xnm5.                       nod33ll_ckt        1.00 
       16 xi0.xnm6.                       nod33ll_ckt        1.00 
       17 xi0.xnm7.                       nod33ll_ckt        1.00 
       18 xi0.xnm9.                       nod33ll_ckt        1.00 
       19 xi0.xnm14.                      nod33ll_ckt        2.00 
       20 xi0.xnm18.                      nod33ll_ckt        8.00 
       21 xi0.xnm21.                      nod33ll_ckt        1.00 
       22 xi0.xnm23.                      nod33ll_ckt        2.00 
       23 xi0.xnm15.                      nod33ll_ckt        2.00 
       24 xi0.xnm17.                      nod33ll_ckt        8.00 
       25 xi0.xnm20.                      nod33ll_ckt        1.00 
       26 xi0.xnm24.                      nod33ll_ckt        2.00 
       27 xi0.xnm33.                      nod33ll_ckt        1.00 
       28 xi0.xnm32.                      nod33ll_ckt        1.00 
       29 xi0.xnm27.                      nod33ll_ckt        1.00 
       30 xi0.xnm13.                      nod33ll_ckt        1.00 
       31 xi0.xnm25.                      nod33ll_ckt        2.00 
       32 xi0.xpm19.                      pod33ll_ckt        1.00 
       33 xi0.xnm26.                      nod33ll_ckt        1.00 
       34 xi0.xpm28.                      pod33ll_ckt        1.00 
       35 xi0.xnm34.                      nod33ll_ckt        4.00 
       36 xi0.xi40.xpm11.                 pod33ll_ckt        4.00 
       37 xi0.xi40.xpm10.                 pod33ll_ckt        4.00 
       38 xi0.xi40.xnm1.                  nod33ll_ckt        2.00 
       39 xi0.xi40.xnm0.                  nod33ll_ckt        6.00 
       40 xi0.xi40.xpm12.                 pod33ll_ckt        1.00 
       41 xi0.xi40.xpm7.                  pod33ll_ckt       10.00 
       42 xi0.xi40.xpm8.                  pod33ll_ckt        5.00 
       43 xi0.xi40.xpm9.                  pod33ll_ckt        2.00 
1****** HSPICE -- D-2010.03 64-BIT (Feb 23 2010) linux ******                   
 ******  
 * msp generated netlist file

  ******  mos   model parameters tnom=  25.000 temp=  25.000 *****
 
Model Name: nod33ll_ckt  

 BSIM4 Model (Level 54)

    MOBMOD = 0
    BINUNIT = 2
    PARAMCHK = 1
    CAPMOD = 2
    DIOMOD = 2
    RDSMOD = 1
    TRNQSMOD = 0
    ACNQSMOD = 0
    RBODYMOD = 0
    RGATEMOD = 0
    PERMOD = 1
    GEOMOD = 0
    RGEOMOD = 1
    FNOIMOD = 1
    TNOIMOD = 0
    IGCMOD = 0
    IGBMOD = 0
    STIMOD = 1
    VBFWDMOD = 0
    VERSION =    4.5 
    TOXREF = 5.63e-09 
    TOXE = 5.77e-09 
    TOXP = 5.874e-09 
    TOXM = 5.63e-09 
    DTOX = -1.036e-10 
    EPSROX =    3.9 
    CDSC =  5e-05 
    CDSCB = 2.002e-05 
    CDSCD =      0 
    CIT = 0.0007521 
    NFACTOR =  1.414 
    XJ = 1.42e-07 
    VSAT = 9.4e+04 
    A0 =      1 
    AGS = 0.3474 
    A1 =      0 
    A2 =      1 
    AT = 1.38e+04 
    KETA = -0.003203 
    NSUB =  6e+16 
    NDEP = 1.3e+17 
    NSD =  1e+20 
    NGATE = 2.27e+22 
    GAMMA1 =      0 
    GAMMA2 =      0 
    VBX =      0 
    VBM =     -3 
    XT = 1.55e-07 
    K1 = 0.6381 
    KT1 = -0.173 
    KT1L = 3.417e-09 
    KT2 = -0.03838 
    K2 = 0.00301 
    K3 = -2.907 
    K3B =      0 
    LPE0 = 5.562e-08 
    LPEB =      0 
    DVTP0 =      0 
    DVTP1 =      0 
    W0 = -9.093e-08 
    DVT0 = 0.6583 
    DVT1 = 0.1013 
    DVT2 =      0 
    DVT0W = 0.5231 
    DVT1W = 1.18e+06 
    DVT2W =  1.064 
    DROUT =   0.56 
    DSUB =    0.7 
    VTH0 = 0.6275 
    EU =   1.67 
    UA = -9.715e-10 
    UA1 = 2.558e-09 
    UB = 2.378e-18 
    UB1 = -2.418e-18 
    UC = 1.209e-10 
    UC1 = -1e-12 
    U0 = 0.03266 
    UTE = -0.9763 
    VOFF = -0.1843 
    VOFFL = 9.667e-10 
    MINV = -0.6978 
    FPROUT =      0 
    PDITS =      0 
    PDITSD =      0 
    PDITSL =      0 
    DELTA = 0.003263 
    RDSW =    200 
    RDSWMIN =      0 
    RDWMIN =      0 
    RSWMIN =      0 
    RDW =  162.8 
    RSW =  162.8 
    PRWG =      0 
    PRWB =  0.028 
    PRT =      0 
    ETA0 =  0.118 
    ETAB = -0.1213 
    PCLM =  0.348 
    PDIBLC1 = 0.02463 
    PDIBLC2 = 0.0001766 
    PDIBLCB =  0.189 
    PSCBE1 = 4.24e+08 
    PSCBE2 = 3.491e-08 
    PVAG =      1 
    WR =      1 
    DWG = 8.451e-09 
    DWB = 1.096e-13 
    XW = 9.3e-09 
    XWREF = 9.3e-09 
    XL =  4e-08 
    XLREF =  4e-08 
    B0 = 5.953e-08 
    B1 =      0 
    ALPHA0 = 3.657e-08 
    ALPHA1 =  9.581 
    AGIDL = 9.423e-09 
    BGIDL = 2.636e+09 
    CGIDL =  130.1 
    PHIN =   0.15 
    EGIDL =  0.496 
    AIGC = 0.0136 
    BIGC = 0.00171 
    CIGC =  0.075 
    AIGSD = 0.0136 
    BIGSD = 0.00171 
    CIGSD =  0.075 
    AIGBACC = 0.000949 
    BIGBACC = 0.00171 
    CIGBACC =  0.075 
    AIGBINV = 0.0111 
    BIGBINV = 0.000949 
    CIGBINV =  0.006 
    NIGC =      1 
    NIGBINV =      3 
    NIGBACC =      1 
    NTOX =      1 
    EIGBINV =    1.1 
    PIGCD =      1 
    POXEDGE =      1 
    XRCRG1 =     12 
    TNOIA =    1.5 
    TNOIB =    3.5 
    NTNOI =      1 
    XRCRG2 =      1 
    BETA0 =  22.91 
    IJTHDFWD =    0.1 
    IJTHSFWD =    0.1 
    IJTHDREV =    0.1 
    IJTHSREV =    0.1 
    XJBVD =      1 
    XJBVS =      1 
    BVD =   9.45 
    BVS =   9.45 
    VFB =     -1 
    GBMIN =  1e-12 
    RBDB =     50 
    RBPB =     50 
    RBSB =     50 
    RBPS =     50 
    RBPD =     50 
    CGSL = 3.515e-10 
    CGDL = 3.515e-10 
    CKAPPAS =    0.6 
    CKAPPAD =    0.6 
    CF = 5.607e-11 
    CLC =  1e-07 
    CLE =    0.6 
    DWC = -6.5e-08 
    DLC = 8.665e-08 
    DLCIG =      0 
    DWJ =      0 
    VFBCV =     -1 
    ACDE = 0.2864 
    MOIN =  5.099 
    NOFF =  1.954 
    VOFFCV = -0.1431 
    DMCG = 9.9e-08 
    DMCI = 1.62e-07 
    DMDG =      0 
    DMCGT =      0 
    XGW =      0 
    XGL =      0 
    RSHG =    0.1 
    NGCON =      1 
    TCJ = 0.0008075 
    TPB = 0.001579 
    TCJSW = 0.0003398 
    TPBSW = 0.0006488 
    TCJSWG = 0.0005936 
    TPBSWG = 0.0003669 
    SK0 =      0 
    SK1 =      0 
    SK2 =      0 
    SL =  2e-06 
    SW =  2e-06 
    K =      0 
    LCIT = -5.294e-11 
    LVSAT = -0.008723 
    LKT1 = 1.1e-09 
    LKT2 =  4e-09 
    LK2 = -6.36e-09 
    LVTH0 = 5.753e-09 
    LUA = 5.684e-16 
    LUA1 = 5.971e-16 
    LUB = -1.843e-27 
    LUB1 = -5.981e-25 
    LUC = 1.868e-17 
    LUC1 = -2e-17 
    LU0 = 6.35e-09 
    LUTE = -3.976e-08 
    LDELTA = 1.069e-08 
    LPCLM = 6.797e-08 
    LALPHA1 = 7.643e-07 
    LBETA0 = 2.298e-08 
    LAGIDL = 3.57e-15 
    LCGIDL = 1.53e-05 
    LNOFF = 1.3e-07 
    LVOFFCV = -1.515e-08 
    WVSAT = -0.01913 
    WAGS = 4.368e-09 
    WKT1 = -2e-09 
    WVTH0 = 4.311e-09 
    WUA1 = -1.82e-16 
    WUB = -2.145e-25 
    WUB1 = -2e-26 
    WUC = -2.829e-17 
    WU0 = -3.692e-09 
    WUTE = -3.645e-08 
    WALPHA1 = 3.099e-07 
    WAGIDL = 2.905e-14 
    PCIT = -2.632e-18 
    PVSAT = 3.03e-09 
    PAT = -5.735e-11 
    PAGS = 2.156e-13 
    PKT1 = -5.122e-16 
    PK2 = 2.241e-15 
    PK3 = 2.24e-13 
    PPE0 = 5.024e-21 
    PDVT0 = -1.376e-14 
    PVTH0 = -1.177e-14 
    PUA = 4.702e-23 
    PUA1 = -7.425e-24 
    PUB = -2.178e-31 
    PUB1 = 2.525e-31 
    PUC = -1.091e-23 
    PUC1 =  1e-23 
    PU0 = -2.383e-15 
    PUTE = 2.392e-14 
    PETA0 = -3.61e-15 
    PPCLM = 2.4e-14 
    PBETA0 = -5.44e-14 
    PAGIDL = 1.367e-20 
    TNOM =  298.1 
    CGSO = 1.425e-12 
    CGDO = 1.425e-12 
    CGBO =      0 
    XPART =      1 
    RSH =   13.2 
    JSS = 2.308e-07 
    JSWS = 1.013e-13 
    JSWGS = 5.6e-14 
    PBS = 0.5832 
    MJS = 0.2363 
    PBSWS = 0.3922 
    MJSWS = 0.2203 
    CJS = 0.001388 
    CJSWS = 8.451e-11 
    NJS = 0.9807 
    PBSWGS =  0.976 
    MJSWGS =    0.6 
    CJSWGS = 1.434e-10 
    XTIS =      3 
    JSD = 2.308e-07 
    JSWD = 1.013e-13 
    JSWGD = 5.6e-14 
    PBD = 0.5832 
    MJD = 0.2363 
    PBSWD = 0.3922 
    MJSWD = 0.2203 
    CJD = 0.001388 
    CJSWD = 8.451e-11 
    NJD = 0.9807 
    PBSWGD =  0.976 
    MJSWGD =    0.6 
    CJSWGD = 1.434e-10 
    XTID =      3 
    LMLT =      1 
    WMLT =      1 
    LINT = 3.171e-08 
    LL = 7.773e-15 
    LLC =      0 
    LLN =      1 
    LW = 3.807e-15 
    LWC =      0 
    LWN =      1 
    LWL = 1.323e-22 
    LWLC =      0 
    LMIN = 4.95e-07 
    LMAX = 0.0001 
    WINT = -2.832e-08 
    WL = -1.858e-14 
    WLC =      0 
    WLN =      1 
    WW = -6.716e-15 
    WWC =      0 
    WWN =      1 
    WWL = 2.396e-21 
    WWLC =      0 
    WMIN = 2.88e-07 
    WMAX = 0.0001 
    NOIA = 2.064e+41 
    NOIB = 7.403e+24 
    NOIC = 4.862e+07 
    EM = 3.308e+11 
    EF = 0.9576 
    AF =      1 
    KF =      0 
    TRS =      0 
    TRD =      0 
    TEMPMOD  =      0 
    LAMBDA   =      0 
    VTL      =  2e+05 m/s
    LC       =  5e-09 
    XN       =      3 
    LLAMBDA  =      0 
    LVTL     =      0 
    LXN      =      0 
    WLAMBDA  =      0 
    WVTL     =      0 
    WXN      =      0 
    PLAMBDA  =      0 
    PVTL     =      0 
    PXN      =      0 
    RNOIA    =  0.577 
    RNOIB    = 0.5164 
    SAREF(SA0) = 2.61e-07 m
    SBREF(SB0) = 2.61e-07 m
    WLOD     =      0 m
    KU0      = -5.71e-08 1/m
    KVSAT    =    0.4 
    KVTH0    = 2.48e-09 m
    TKU0     =      0 
    LLODKU0  =      1 
    WLODKU0  =      1 
    LLODVTH  =      1 
    WLODVTH  =      1 
    LKU0     = 1.325e-06 
    WKU0     =  1e-08 
    PKU0     = -5.7e-14 
    LKVTH0   = -1.301e-07 
    WKVTH0   = -1.5e-07 
    PKVTH0   = 6.3e-14 
    STK2     =      0 
    LODK2    =      1 
    STETA0   = -3.339e-09 
    LODETA0  =      1 
    LXRCRG1  =      0 
    WXRCRG1  =      0 
    PXRCRG1  =      0 
    LXRCRG2  =      0 
    WXRCRG2  =      0 
    PXRCRG2  =      0 
 

    *** UCB's BSIM4.4.0 new diode model is activated. ***
    *** UCB's Diode Model Parameters ***

    JTSS         =      0 
    JTSSWS       =      0 
    JTSSWGS      = 1.2e-18 
    JTSD         =      0 
    JTSSWD       =      0 
    JTSSWGD      = 1.2e-18 
    NJTS         =     20 
    NJTSSW       =     20 
    NJTSSWG      =     20 
    XTSS         =   0.02 
    XTSSWS       =   0.02 
    XTSSWGS      =   0.02 
    XTSD         =   0.02 
    XTSSWD       =   0.02 
    XTSSWGD      =   0.02 
    TNJTS        =      0 
    TNJTSSW      =      0 
    TNJTSSWG     =      0 
    VFBSDOFF     =      0 
    LVFBSDOFF    =      0 
    WVFBSDOFF    =      0 
    PVFBSDOFF    =      0 
    LINTNOI      = -3.905e-08 
    VTSS         =     10 
    VTSD         =     10 
    VTSSWS       =     10 
    VTSSWD       =     10 
    VTSSWGS      =     10 
    VTSSWGD      =     10 
    TTDIOMOD     =      1 
 

    *** UCB's BSIM4.5.0 new model is activated. ***
    UD         =  1e+14 
    UD1        =      0 
    UP         =      0 
    LP         =  1e-08 
    TVOFF      =  0.003 
    TVFBSDOFF  =      0 
    RBPS0      =     50 
    RBPSL      =      0 
    RBPSW      =      0 
    RBPSNF     =      0 
    RBPD0      =     50 
    RBPDL      =      0 
    RBPDW      =      0 
    RBPDNF     =      0 
    RBPBX0     =    100 
    RBPBXL     =      0 
    RBPBXW     =      0 
    RBPBXNF    =      0 
    RBPBY0     =    100 
    RBPBYL     =      0 
    RBPBYW     =      0 
    RBPBYNF    =      0 
    RBSBX0     =    100 
    RBSBY0     =    100 
    RBDBX0     =    100 
    RBDBY0     =    100 
    RBSDBXL    =      0 
    RBSDBXW    =      0 
    RBSDBXNF   =      0 
    RBSDBYL    =      0 
    RBSDBYW    =      0 
    RBSDBYNF   =      0 
    LUD        =      0 
    LUD1       =      0 
    LUP        =      0 
    LLP        =      0 
    LTVOFF     = -4.4e-11 
    LTVFBSDOFF =      0 
    WUD        =      0 
    WUD1       =      0 
    WUP        =      0 
    WLP        =      0 
    WTVOFF     =      0 
    WTVFBSDOFF =      0 
    PUD        =      0 
    PUD1       =      0 
    PUP        =      0 
    PLP        =      0 
    PTVOFF     =      0 
    PTVFBSDOFF =      0 
    WEB        =   -460 
    WEC        =   -300 
    KVTH0WE    = 0.01789 
    K2WE       =      0 
    KU0WE      = -0.01846 
    SCREF      =  1e-06 
    WPEMOD     =      1 
    LKVTH0WE   = 1.579e-09 
    LK2WE      =      0 
    LKU0WE     =      0 
    WKVTH0WE   =  1e-09 
    WK2WE      =      0 
    WKU0WE     = 4.324e-09 
    PKVTH0WE   = -4.409e-16 
    PK2WE      =      0 
    PKU0WE     = -6.528e-16 
 

 
Model Name: pod33ll_ckt  

 BSIM4 Model (Level 54)

    MOBMOD = 0
    BINUNIT = 2
    PARAMCHK = 1
    CAPMOD = 2
    DIOMOD = 2
    RDSMOD = 1
    TRNQSMOD = 0
    ACNQSMOD = 0
    RBODYMOD = 0
    RGATEMOD = 0
    PERMOD = 1
    GEOMOD = 0
    RGEOMOD = 1
    FNOIMOD = 1
    TNOIMOD = 0
    IGCMOD = 0
    IGBMOD = 0
    STIMOD = 1
    VBFWDMOD = 0
    VERSION =    4.5 
    TOXREF = 6.02e-09 
    TOXE = 6.119e-09 
    TOXP = 5.979e-09 
    TOXM = 6.119e-09 
    DTOX = 1.4e-10 
    EPSROX =    3.9 
    CDSC =      0 
    CDSCB =      0 
    CDSCD =      0 
    CIT = 0.00063 
    NFACTOR =   1.05 
    XJ = 1.37e-07 
    VSAT = 8.5e+04 
    A0 =  1.495 
    AGS =  0.275 
    A1 =      0 
    A2 =      1 
    AT =  6e+04 
    KETA = -0.002248 
    NSUB =  6e+16 
    NDEP =  1e+17 
    NSD =  1e+20 
    NGATE =  1e+21 
    GAMMA1 =      0 
    GAMMA2 =      0 
    VBX =      0 
    VBM =     -3 
    XT = 1.55e-07 
    K1 =    0.6 
    KT1 = -0.1793 
    KT1L =  2e-08 
    KT2 = -0.02903 
    K2 =  -0.05 
    K3 =      0 
    K3B =    0.7 
    LPE0 =  7e-08 
    LPEB =      0 
    DVTP0 = -1e-07 
    DVTP1 =      0 
    W0 =      0 
    DVT0 =      7 
    DVT1 =   0.36 
    DVT2 =   0.01 
    DVT0W =      0 
    DVT1W =      0 
    DVT2W =      0 
    DROUT =   0.56 
    DSUB =   0.56 
    VTH0 = -0.642 
    EU =   1.67 
    UA = 2.579e-10 
    UA1 = 1.768e-09 
    UB = 1.231e-18 
    UB1 = -3.029e-18 
    UC = -2e-11 
    UC1 = 4.849e-12 
    U0 = 0.01046 
    UTE =     -1 
    VOFF = -0.132 
    VOFFL = -1.4e-08 
    MINV =  -0.08 
    FPROUT =      0 
    PDITS =      0 
    PDITSD =      0 
    PDITSL =      0 
    DELTA =  0.004 
    RDSW =    477 
    RDSWMIN =      0 
    RDWMIN =      0 
    RSWMIN =      0 
    RDW =    270 
    RSW =    270 
    PRWG =      0 
    PRWB =      0 
    PRT =      0 
    ETA0 =   0.08 
    ETAB = -0.152 
    PCLM =  0.362 
    PDIBLC1 =      0 
    PDIBLC2 = 3.06e-05 
    PDIBLCB =      0 
    PSCBE1 = 4.24e+09 
    PSCBE2 =  1e-08 
    PVAG =      0 
    WR =      1 
    DWG =      0 
    DWB =      0 
    XW = 1.23e-08 
    XWREF = 1.23e-08 
    XL = 1.36e-08 
    XLREF = 1.36e-08 
    B0 =      0 
    B1 =      0 
    ALPHA0 = -5.285e-06 
    ALPHA1 =   15.9 
    AGIDL =  5e-10 
    BGIDL =  2e+09 
    CGIDL =    0.5 
    PHIN = 0.04597 
    EGIDL =   0.37 
    AIGC = 0.0098 
    BIGC = 0.000759 
    CIGC =   0.03 
    AIGSD = 0.0098 
    BIGSD = 0.000759 
    CIGSD =   0.03 
    AIGBACC = 0.000949 
    BIGBACC = 0.00171 
    CIGBACC =  0.075 
    AIGBINV = 0.0111 
    BIGBINV = 0.000949 
    CIGBINV =  0.006 
    NIGC =      1 
    NIGBINV =      3 
    NIGBACC =      1 
    NTOX =      1 
    EIGBINV =    1.1 
    PIGCD =      1 
    POXEDGE =      1 
    XRCRG1 =     12 
    TNOIA =    1.5 
    TNOIB =    3.5 
    NTNOI =      1 
    XRCRG2 =      1 
    BETA0 =   33.6 
    IJTHDFWD =    0.1 
    IJTHSFWD =    0.1 
    IJTHDREV =    0.1 
    IJTHSREV =    0.1 
    XJBVD =      1 
    XJBVS =      1 
    BVD =   8.55 
    BVS =   8.55 
    VFB =     -1 
    GBMIN =  1e-12 
    RBDB =     50 
    RBPB =     50 
    RBSB =     50 
    RBPS =     50 
    RBPD =     50 
    CGSL = 3.23e-10 
    CGDL = 3.23e-10 
    CKAPPAS =    0.6 
    CKAPPAD =    0.6 
    CF = 5.478e-11 
    CLC =  1e-07 
    CLE =    0.6 
    DWC = -6.5e-08 
    DLC = 7.306e-08 
    DLCIG =  5e-09 
    DWJ =      0 
    VFBCV =     -1 
    ACDE = 0.5037 
    MOIN =      8 
    NOFF =    1.4 
    VOFFCV =  -0.02 
    DMCG = 9.9e-08 
    DMCI = 1.62e-07 
    DMDG =      0 
    DMCGT =      0 
    XGW =      0 
    XGL =      0 
    RSHG =    0.1 
    NGCON =      1 
    TCJ = 0.0008479 
    TPB = 0.001659 
    TCJSW = 0.000503 
    TPBSW = 0.002829 
    TCJSWG = 0.0002 
    TPBSWG = 0.0003037 
    SK0 =      0 
    SK1 =      0 
    SK2 =      0 
    SL =  2e-06 
    SW =  2e-06 
    K =      0 
    LCIT = -2e-10 
    LVSAT = 0.005595 
    LAT =  -0.07 
    LA0 = -9e-07 
    LAGS = 2.5e-07 
    LKETA = -3.24e-09 
    LKT2 = 1.227e-09 
    LVTH0 = -1.31e-08 
    LUA = 1.616e-16 
    LUA1 = 3.45e-17 
    LUB = -1e-25 
    LUB1 =  1e-25 
    LUC = 4.705e-18 
    LU0 = 1.215e-09 
    LDELTA = 3.23e-09 
    LETA0 = 4.292e-08 
    LETAB = 1.7e-08 
    LPCLM = 1.3e-07 
    LPDIBLC2 =  6e-10 
    LALPHA0 = 8.338e-13 
    LBETA0 = -1.837e-06 
    LAGIDL = -1.4e-16 
    LNOFF =  6e-07 
    LVOFFCV = -4e-08 
    WAT =  0.023 
    WA0 =  5e-09 
    WKETA = 3.031e-09 
    WKT1 = 1.029e-08 
    WVTH0 =  2e-09 
    WUA = -6.12e-17 
    WUB = 1.996e-26 
    WUB1 = 1.94e-25 
    WU0 =  2e-10 
    WPCLM = -1e-08 
    WAGIDL =  6e-16 
    PVSAT = -2.029e-09 
    PAT =  5e-09 
    PA0 = 9.04e-14 
    PKT1 =  8e-15 
    PK2 = -1e-16 
    PDVT1 = 5.016e-15 
    PVTH0 = -1e-15 
    PUA = 4.596e-23 
    PUA1 = 3.438e-24 
    PUB = -3.305e-32 
    PUB1 =  8e-33 
    PUC = -1.25e-24 
    PUC1 = 2.2e-24 
    PU0 = -2e-16 
    PVOFF = -2.128e-15 
    PETA0 = 1.08e-14 
    PAGIDL = -4e-22 
    TNOM =  298.1 
    CGSO = 9.5e-12 
    CGDO = 9.5e-12 
    CGBO =      0 
    XPART =      1 
    RSH =     14 
    JSS = 1.593e-07 
    JSWS = 1.013e-13 
    JSWGS = 1.53e-12 
    PBS =  0.729 
    MJS = 0.3168 
    PBSWS =   1.03 
    MJSWS = 0.1784 
    CJS = 0.001294 
    CJSWS = 6.083e-11 
    NJS = 0.9839 
    PBSWGS = 0.8317 
    MJSWGS =  0.465 
    CJSWGS = 1.698e-10 
    XTIS =      3 
    JSD = 1.593e-07 
    JSWD = 1.013e-13 
    JSWGD = 1.53e-12 
    PBD =  0.729 
    MJD = 0.3168 
    PBSWD =   1.03 
    MJSWD = 0.1784 
    CJD = 0.001294 
    CJSWD = 6.083e-11 
    NJD = 0.9839 
    PBSWGD = 0.8317 
    MJSWGD =  0.465 
    CJSWGD = 1.698e-10 
    XTID =      3 
    LMLT =      1 
    WMLT =      1 
    LINT =  4e-09 
    LL = -5e-15 
    LLC =      0 
    LLN =    0.9 
    LW =      0 
    LWC =      0 
    LWN =      1 
    LWL =      0 
    LWLC =      0 
    LMIN = 3.96e-07 
    LMAX = 0.0001 
    WINT = -2e-08 
    WL = -1.1e-14 
    WLC =      0 
    WLN =   0.98 
    WW =  9e-15 
    WWC =      0 
    WWN =   0.96 
    WWL =      0 
    WWLC =      0 
    WMIN = 2.88e-07 
    WMAX = 0.0001 
    NOIA = 5.223e+41 
    NOIB = 1.399e+26 
    NOIC =  6e+09 
    EM =  2e+09 
    EF =   1.21 
    AF =      1 
    KF =      0 
    TRS =      0 
    TRD =      0 
    TEMPMOD  =      0 
    LAMBDA   =      0 
    VTL      =  2e+05 m/s
    LC       =  5e-09 
    XN       =      3 
    LLAMBDA  =      0 
    LVTL     =      0 
    LXN      =      0 
    WLAMBDA  =      0 
    WVTL     =      0 
    WXN      =      0 
    PLAMBDA  =      0 
    PVTL     =      0 
    PXN      =      0 
    RNOIA    =  0.577 
    RNOIB    = 0.5164 
    SAREF(SA0) = 2.61e-07 m
    SBREF(SB0) = 2.61e-07 m
    WLOD     =      0 m
    KU0      =  3e-09 1/m
    KVSAT    =      1 
    KVTH0    =  4e-09 m
    TKU0     =      0 
    LLODKU0  =      1 
    WLODKU0  =      1 
    LLODVTH  =      1 
    WLODVTH  =      1 
    LKU0     =  2e-06 
    WKU0     =      0 
    PKU0     =      0 
    LKVTH0   =  7e-07 
    WKVTH0   =  3e-07 
    PKVTH0   =  2e-13 
    STK2     =      0 
    LODK2    =      1 
    STETA0   =      0 
    LODETA0  =      1 
    LXRCRG1  =      0 
    WXRCRG1  =      0 
    PXRCRG1  =      0 
    LXRCRG2  =      0 
    WXRCRG2  =      0 
    PXRCRG2  =      0 
 

    *** UCB's BSIM4.4.0 new diode model is activated. ***
    *** UCB's Diode Model Parameters ***

    JTSS         =      0 
    JTSSWS       =      0 
    JTSSWGS      =  7e-10 
    JTSD         =      0 
    JTSSWD       =      0 
    JTSSWGD      =  7e-10 
    NJTS         =     20 
    NJTSSW       =     20 
    NJTSSWG      =     20 
    XTSS         =   0.02 
    XTSSWS       =   0.02 
    XTSSWGS      =   0.02 
    XTSD         =   0.02 
    XTSSWD       =   0.02 
    XTSSWGD      =   0.02 
    TNJTS        =      0 
    TNJTSSW      =      0 
    TNJTSSWG     =      0 
    VFBSDOFF     =      0 
    LVFBSDOFF    =      0 
    WVFBSDOFF    =      0 
    PVFBSDOFF    =      0 
    LINTNOI      = -1.8e-08 
    VTSS         =     10 
    VTSD         =     10 
    VTSSWS       =     10 
    VTSSWD       =     10 
    VTSSWGS      =     10 
    VTSSWGD      =     10 
    TTDIOMOD     =      1 
 

    *** UCB's BSIM4.5.0 new model is activated. ***
    UD         =  1e+14 
    UD1        =      0 
    UP         =      0 
    LP         =  1e-08 
    TVOFF      =  0.005 
    TVFBSDOFF  =      0 
    RBPS0      =     50 
    RBPSL      =      0 
    RBPSW      =      0 
    RBPSNF     =      0 
    RBPD0      =     50 
    RBPDL      =      0 
    RBPDW      =      0 
    RBPDNF     =      0 
    RBPBX0     =    100 
    RBPBXL     =      0 
    RBPBXW     =      0 
    RBPBXNF    =      0 
    RBPBY0     =    100 
    RBPBYL     =      0 
    RBPBYW     =      0 
    RBPBYNF    =      0 
    RBSBX0     =    100 
    RBSBY0     =    100 
    RBDBX0     =    100 
    RBDBY0     =    100 
    RBSDBXL    =      0 
    RBSDBXW    =      0 
    RBSDBXNF   =      0 
    RBSDBYL    =      0 
    RBSDBYW    =      0 
    RBSDBYNF   =      0 
    LUD        =      0 
    LUD1       =      0 
    LUP        =      0 
    LLP        =      0 
    LTVOFF     =      0 
    LTVFBSDOFF =      0 
    WUD        =      0 
    WUD1       =      0 
    WUP        =      0 
    WLP        =      0 
    WTVOFF     = 6.4e-10 
    WTVFBSDOFF =      0 
    PUD        =      0 
    PUD1       =      0 
    PUP        =      0 
    PLP        =      0 
    PTVOFF     =      0 
    PTVFBSDOFF =      0 
    WEB        =     10 
    WEC        =      0 
    KVTH0WE    = -0.008 
    K2WE       =      0 
    KU0WE      = -0.004 
    SCREF      =  1e-06 
    WPEMOD     =      1 
    LKVTH0WE   = -6e-10 
    LK2WE      =      0 
    LKU0WE     =      0 
    WKVTH0WE   =  3e-10 
    WK2WE      =      0 
    WKU0WE     = -1e-10 
    PKVTH0WE   =  1e-16 
    PK2WE      =      0 
    PKU0WE     = -8e-17 
 

 
Model Name: pod33ll_ckt  

 BSIM4 Model (Level 54)

    MOBMOD = 0
    BINUNIT = 2
    PARAMCHK = 1
    CAPMOD = 2
    DIOMOD = 2
    RDSMOD = 1
    TRNQSMOD = 0
    ACNQSMOD = 0
    RBODYMOD = 0
    RGATEMOD = 0
    PERMOD = 1
    GEOMOD = 0
    RGEOMOD = 1
    FNOIMOD = 1
    TNOIMOD = 0
    IGCMOD = 0
    IGBMOD = 0
    STIMOD = 1
    VBFWDMOD = 0
    VERSION =    4.5 
    TOXREF = 6.02e-09 
    TOXE = 6.119e-09 
    TOXP = 5.979e-09 
    TOXM = 6.119e-09 
    DTOX = 1.4e-10 
    EPSROX =    3.9 
    CDSC =      0 
    CDSCB =      0 
    CDSCD =      0 
    CIT = 0.00063 
    NFACTOR =   1.05 
    XJ = 1.37e-07 
    VSAT = 8.5e+04 
    A0 =  1.495 
    AGS =  0.275 
    A1 =      0 
    A2 =      1 
    AT =  6e+04 
    KETA = -0.002248 
    NSUB =  6e+16 
    NDEP =  1e+17 
    NSD =  1e+20 
    NGATE =  1e+21 
    GAMMA1 =      0 
    GAMMA2 =      0 
    VBX =      0 
    VBM =     -3 
    XT = 1.55e-07 
    K1 =    0.6 
    KT1 = -0.1793 
    KT1L =  2e-08 
    KT2 = -0.02903 
    K2 =  -0.05 
    K3 =      0 
    K3B =    0.7 
    LPE0 =  7e-08 
    LPEB =      0 
    DVTP0 = -1e-07 
    DVTP1 =      0 
    W0 =      0 
    DVT0 =      7 
    DVT1 =   0.36 
    DVT2 =   0.01 
    DVT0W =      0 
    DVT1W =      0 
    DVT2W =      0 
    DROUT =   0.56 
    DSUB =   0.56 
    VTH0 = -0.642 
    EU =   1.67 
    UA = 2.579e-10 
    UA1 = 1.768e-09 
    UB = 1.231e-18 
    UB1 = -3.029e-18 
    UC = -2e-11 
    UC1 = 4.849e-12 
    U0 = 0.01046 
    UTE =     -1 
    VOFF = -0.132 
    VOFFL = -1.4e-08 
    MINV =  -0.08 
    FPROUT =      0 
    PDITS =      0 
    PDITSD =      0 
    PDITSL =      0 
    DELTA =  0.004 
    RDSW =    477 
    RDSWMIN =      0 
    RDWMIN =      0 
    RSWMIN =      0 
    RDW =    270 
    RSW =    270 
    PRWG =      0 
    PRWB =      0 
    PRT =      0 
    ETA0 =   0.08 
    ETAB = -0.152 
    PCLM =  0.362 
    PDIBLC1 =      0 
    PDIBLC2 = 3.06e-05 
    PDIBLCB =      0 
    PSCBE1 = 4.24e+09 
    PSCBE2 =  1e-08 
    PVAG =      0 
    WR =      1 
    DWG =      0 
    DWB =      0 
    XW = 1.23e-08 
    XWREF = 1.23e-08 
    XL = 1.36e-08 
    XLREF = 1.36e-08 
    B0 =      0 
    B1 =      0 
    ALPHA0 = -5.285e-06 
    ALPHA1 =   15.9 
    AGIDL =  5e-10 
    BGIDL =  2e+09 
    CGIDL =    0.5 
    PHIN = 0.04597 
    EGIDL =   0.37 
    AIGC = 0.0098 
    BIGC = 0.000759 
    CIGC =   0.03 
    AIGSD = 0.0098 
    BIGSD = 0.000759 
    CIGSD =   0.03 
    AIGBACC = 0.000949 
    BIGBACC = 0.00171 
    CIGBACC =  0.075 
    AIGBINV = 0.0111 
    BIGBINV = 0.000949 
    CIGBINV =  0.006 
    NIGC =      1 
    NIGBINV =      3 
    NIGBACC =      1 
    NTOX =      1 
    EIGBINV =    1.1 
    PIGCD =      1 
    POXEDGE =      1 
    XRCRG1 =     12 
    TNOIA =    1.5 
    TNOIB =    3.5 
    NTNOI =      1 
    XRCRG2 =      1 
    BETA0 =   33.6 
    IJTHDFWD =    0.1 
    IJTHSFWD =    0.1 
    IJTHDREV =    0.1 
    IJTHSREV =    0.1 
    XJBVD =      1 
    XJBVS =      1 
    BVD =   8.55 
    BVS =   8.55 
    VFB =     -1 
    GBMIN =  1e-12 
    RBDB =     50 
    RBPB =     50 
    RBSB =     50 
    RBPS =     50 
    RBPD =     50 
    CGSL = 3.23e-10 
    CGDL = 3.23e-10 
    CKAPPAS =    0.6 
    CKAPPAD =    0.6 
    CF = 5.478e-11 
    CLC =  1e-07 
    CLE =    0.6 
    DWC = -6.5e-08 
    DLC = 7.306e-08 
    DLCIG =  5e-09 
    DWJ =      0 
    VFBCV =     -1 
    ACDE = 0.5037 
    MOIN =      8 
    NOFF =    1.4 
    VOFFCV =  -0.02 
    DMCG = 9.9e-08 
    DMCI = 1.62e-07 
    DMDG =      0 
    DMCGT =      0 
    XGW =      0 
    XGL =      0 
    RSHG =    0.1 
    NGCON =      1 
    TCJ = 0.0008479 
    TPB = 0.001659 
    TCJSW = 0.000503 
    TPBSW = 0.002829 
    TCJSWG = 0.0002 
    TPBSWG = 0.0003037 
    SK0 =      0 
    SK1 =      0 
    SK2 =      0 
    SL =  2e-06 
    SW =  2e-06 
    K =      0 
    LCIT = -2e-10 
    LVSAT = 0.005595 
    LAT =  -0.07 
    LA0 = -9e-07 
    LAGS = 2.5e-07 
    LKETA = -3.24e-09 
    LKT2 = 1.227e-09 
    LVTH0 = -1.31e-08 
    LUA = 1.616e-16 
    LUA1 = 3.45e-17 
    LUB = -1e-25 
    LUB1 =  1e-25 
    LUC = 4.705e-18 
    LU0 = 1.215e-09 
    LDELTA = 3.23e-09 
    LETA0 = 4.292e-08 
    LETAB = 1.7e-08 
    LPCLM = 1.3e-07 
    LPDIBLC2 =  6e-10 
    LALPHA0 = 8.338e-13 
    LBETA0 = -1.837e-06 
    LAGIDL = -1.4e-16 
    LNOFF =  6e-07 
    LVOFFCV = -4e-08 
    WAT =  0.023 
    WA0 =  5e-09 
    WKETA = 3.031e-09 
    WKT1 = 1.029e-08 
    WVTH0 =  2e-09 
    WUA = -6.12e-17 
    WUB = 1.996e-26 
    WUB1 = 1.94e-25 
    WU0 =  2e-10 
    WPCLM = -1e-08 
    WAGIDL =  6e-16 
    PVSAT = -2.029e-09 
    PAT =  5e-09 
    PA0 = 9.04e-14 
    PKT1 =  8e-15 
    PK2 = -1e-16 
    PDVT1 = 5.016e-15 
    PVTH0 = -1e-15 
    PUA = 4.596e-23 
    PUA1 = 3.438e-24 
    PUB = -3.305e-32 
    PUB1 =  8e-33 
    PUC = -1.25e-24 
    PUC1 = 2.2e-24 
    PU0 = -2e-16 
    PVOFF = -2.128e-15 
    PETA0 = 1.08e-14 
    PAGIDL = -4e-22 
    TNOM =  298.1 
    CGSO = 9.5e-12 
    CGDO = 9.5e-12 
    CGBO =      0 
    XPART =      1 
    RSH =     14 
    JSS = 1.593e-07 
    JSWS = 1.013e-13 
    JSWGS = 1.53e-12 
    PBS =  0.729 
    MJS = 0.3168 
    PBSWS =   1.03 
    MJSWS = 0.1784 
    CJS = 0.001294 
    CJSWS = 6.083e-11 
    NJS = 0.9839 
    PBSWGS = 0.8317 
    MJSWGS =  0.465 
    CJSWGS = 1.698e-10 
    XTIS =      3 
    JSD = 1.593e-07 
    JSWD = 1.013e-13 
    JSWGD = 1.53e-12 
    PBD =  0.729 
    MJD = 0.3168 
    PBSWD =   1.03 
    MJSWD = 0.1784 
    CJD = 0.001294 
    CJSWD = 6.083e-11 
    NJD = 0.9839 
    PBSWGD = 0.8317 
    MJSWGD =  0.465 
    CJSWGD = 1.698e-10 
    XTID =      3 
    LMLT =      1 
    WMLT =      1 
    LINT =  4e-09 
    LL = -5e-15 
    LLC =      0 
    LLN =    0.9 
    LW =      0 
    LWC =      0 
    LWN =      1 
    LWL =      0 
    LWLC =      0 
    LMIN = 3.96e-07 
    LMAX = 0.0001 
    WINT = -2e-08 
    WL = -1.1e-14 
    WLC =      0 
    WLN =   0.98 
    WW =  9e-15 
    WWC =      0 
    WWN =   0.96 
    WWL =      0 
    WWLC =      0 
    WMIN = 2.88e-07 
    WMAX = 0.0001 
    NOIA = 5.223e+41 
    NOIB = 1.399e+26 
    NOIC =  6e+09 
    EM =  2e+09 
    EF =   1.21 
    AF =      1 
    KF =      0 
    TRS =      0 
    TRD =      0 
    TEMPMOD  =      0 
    LAMBDA   =      0 
    VTL      =  2e+05 m/s
    LC       =  5e-09 
    XN       =      3 
    LLAMBDA  =      0 
    LVTL     =      0 
    LXN      =      0 
    WLAMBDA  =      0 
    WVTL     =      0 
    WXN      =      0 
    PLAMBDA  =      0 
    PVTL     =      0 
    PXN      =      0 
    RNOIA    =  0.577 
    RNOIB    = 0.5164 
    SAREF(SA0) = 2.61e-07 m
    SBREF(SB0) = 2.61e-07 m
    WLOD     =      0 m
    KU0      =  3e-09 1/m
    KVSAT    =      1 
    KVTH0    =  4e-09 m
    TKU0     =      0 
    LLODKU0  =      1 
    WLODKU0  =      1 
    LLODVTH  =      1 
    WLODVTH  =      1 
    LKU0     =  2e-06 
    WKU0     =      0 
    PKU0     =      0 
    LKVTH0   =  7e-07 
    WKVTH0   =  3e-07 
    PKVTH0   =  2e-13 
    STK2     =      0 
    LODK2    =      1 
    STETA0   =      0 
    LODETA0  =      1 
    LXRCRG1  =      0 
    WXRCRG1  =      0 
    PXRCRG1  =      0 
    LXRCRG2  =      0 
    WXRCRG2  =      0 
    PXRCRG2  =      0 
 

    *** UCB's BSIM4.4.0 new diode model is activated. ***
    *** UCB's Diode Model Parameters ***

    JTSS         =      0 
    JTSSWS       =      0 
    JTSSWGS      =  7e-10 
    JTSD         =      0 
    JTSSWD       =      0 
    JTSSWGD      =  7e-10 
    NJTS         =     20 
    NJTSSW       =     20 
    NJTSSWG      =     20 
    XTSS         =   0.02 
    XTSSWS       =   0.02 
    XTSSWGS      =   0.02 
    XTSD         =   0.02 
    XTSSWD       =   0.02 
    XTSSWGD      =   0.02 
    TNJTS        =      0 
    TNJTSSW      =      0 
    TNJTSSWG     =      0 
    VFBSDOFF     =      0 
    LVFBSDOFF    =      0 
    WVFBSDOFF    =      0 
    PVFBSDOFF    =      0 
    LINTNOI      = -1.8e-08 
    VTSS         =     10 
    VTSD         =     10 
    VTSSWS       =     10 
    VTSSWD       =     10 
    VTSSWGS      =     10 
    VTSSWGD      =     10 
    TTDIOMOD     =      1 
 

    *** UCB's BSIM4.5.0 new model is activated. ***
    UD         =  1e+14 
    UD1        =      0 
    UP         =      0 
    LP         =  1e-08 
    TVOFF      =  0.005 
    TVFBSDOFF  =      0 
    RBPS0      =     50 
    RBPSL      =      0 
    RBPSW      =      0 
    RBPSNF     =      0 
    RBPD0      =     50 
    RBPDL      =      0 
    RBPDW      =      0 
    RBPDNF     =      0 
    RBPBX0     =    100 
    RBPBXL     =      0 
    RBPBXW     =      0 
    RBPBXNF    =      0 
    RBPBY0     =    100 
    RBPBYL     =      0 
    RBPBYW     =      0 
    RBPBYNF    =      0 
    RBSBX0     =    100 
    RBSBY0     =    100 
    RBDBX0     =    100 
    RBDBY0     =    100 
    RBSDBXL    =      0 
    RBSDBXW    =      0 
    RBSDBXNF   =      0 
    RBSDBYL    =      0 
    RBSDBYW    =      0 
    RBSDBYNF   =      0 
    LUD        =      0 
    LUD1       =      0 
    LUP        =      0 
    LLP        =      0 
    LTVOFF     =      0 
    LTVFBSDOFF =      0 
    WUD        =      0 
    WUD1       =      0 
    WUP        =      0 
    WLP        =      0 
    WTVOFF     = 6.4e-10 
    WTVFBSDOFF =      0 
    PUD        =      0 
    PUD1       =      0 
    PUP        =      0 
    PLP        =      0 
    PTVOFF     =      0 
    PTVFBSDOFF =      0 
    WEB        =     10 
    WEC        =      0 
    KVTH0WE    = -0.008 
    K2WE       =      0 
    KU0WE      = -0.004 
    SCREF      =  1e-06 
    WPEMOD     =      1 
    LKVTH0WE   = -6e-10 
    LK2WE      =      0 
    LKU0WE     =      0 
    WKVTH0WE   =  3e-10 
    WK2WE      =      0 
    WKU0WE     = -1e-10 
    PKVTH0WE   =  1e-16 
    PK2WE      =      0 
    PKU0WE     = -8e-17 
 

 
Model Name: pod33ll_ckt  

 BSIM4 Model (Level 54)

    MOBMOD = 0
    BINUNIT = 2
    PARAMCHK = 1
    CAPMOD = 2
    DIOMOD = 2
    RDSMOD = 1
    TRNQSMOD = 0
    ACNQSMOD = 0
    RBODYMOD = 0
    RGATEMOD = 0
    PERMOD = 1
    GEOMOD = 0
    RGEOMOD = 1
    FNOIMOD = 1
    TNOIMOD = 0
    IGCMOD = 0
    IGBMOD = 0
    STIMOD = 1
    VBFWDMOD = 0
    VERSION =    4.5 
    TOXREF = 6.02e-09 
    TOXE = 6.119e-09 
    TOXP = 5.979e-09 
    TOXM = 6.119e-09 
    DTOX = 1.4e-10 
    EPSROX =    3.9 
    CDSC =      0 
    CDSCB =      0 
    CDSCD =      0 
    CIT = 0.00063 
    NFACTOR =   1.05 
    XJ = 1.37e-07 
    VSAT = 8.5e+04 
    A0 =  1.495 
    AGS =  0.275 
    A1 =      0 
    A2 =      1 
    AT =  6e+04 
    KETA = -0.002248 
    NSUB =  6e+16 
    NDEP =  1e+17 
    NSD =  1e+20 
    NGATE =  1e+21 
    GAMMA1 =      0 
    GAMMA2 =      0 
    VBX =      0 
    VBM =     -3 
    XT = 1.55e-07 
    K1 =    0.6 
    KT1 = -0.1793 
    KT1L =  2e-08 
    KT2 = -0.02903 
    K2 =  -0.05 
    K3 =      0 
    K3B =    0.7 
    LPE0 =  7e-08 
    LPEB =      0 
    DVTP0 = -1e-07 
    DVTP1 =      0 
    W0 =      0 
    DVT0 =      7 
    DVT1 =   0.36 
    DVT2 =   0.01 
    DVT0W =      0 
    DVT1W =      0 
    DVT2W =      0 
    DROUT =   0.56 
    DSUB =   0.56 
    VTH0 = -0.642 
    EU =   1.67 
    UA = 2.579e-10 
    UA1 = 1.768e-09 
    UB = 1.231e-18 
    UB1 = -3.029e-18 
    UC = -2e-11 
    UC1 = 4.849e-12 
    U0 = 0.01046 
    UTE =     -1 
    VOFF = -0.132 
    VOFFL = -1.4e-08 
    MINV =  -0.08 
    FPROUT =      0 
    PDITS =      0 
    PDITSD =      0 
    PDITSL =      0 
    DELTA =  0.004 
    RDSW =    477 
    RDSWMIN =      0 
    RDWMIN =      0 
    RSWMIN =      0 
    RDW =    270 
    RSW =    270 
    PRWG =      0 
    PRWB =      0 
    PRT =      0 
    ETA0 =   0.08 
    ETAB = -0.152 
    PCLM =  0.362 
    PDIBLC1 =      0 
    PDIBLC2 = 3.06e-05 
    PDIBLCB =      0 
    PSCBE1 = 4.24e+09 
    PSCBE2 =  1e-08 
    PVAG =      0 
    WR =      1 
    DWG =      0 
    DWB =      0 
    XW = 1.23e-08 
    XWREF = 1.23e-08 
    XL = 1.36e-08 
    XLREF = 1.36e-08 
    B0 =      0 
    B1 =      0 
    ALPHA0 = -5.285e-06 
    ALPHA1 =   15.9 
    AGIDL =  5e-10 
    BGIDL =  2e+09 
    CGIDL =    0.5 
    PHIN = 0.04597 
    EGIDL =   0.37 
    AIGC = 0.0098 
    BIGC = 0.000759 
    CIGC =   0.03 
    AIGSD = 0.0098 
    BIGSD = 0.000759 
    CIGSD =   0.03 
    AIGBACC = 0.000949 
    BIGBACC = 0.00171 
    CIGBACC =  0.075 
    AIGBINV = 0.0111 
    BIGBINV = 0.000949 
    CIGBINV =  0.006 
    NIGC =      1 
    NIGBINV =      3 
    NIGBACC =      1 
    NTOX =      1 
    EIGBINV =    1.1 
    PIGCD =      1 
    POXEDGE =      1 
    XRCRG1 =     12 
    TNOIA =    1.5 
    TNOIB =    3.5 
    NTNOI =      1 
    XRCRG2 =      1 
    BETA0 =   33.6 
    IJTHDFWD =    0.1 
    IJTHSFWD =    0.1 
    IJTHDREV =    0.1 
    IJTHSREV =    0.1 
    XJBVD =      1 
    XJBVS =      1 
    BVD =   8.55 
    BVS =   8.55 
    VFB =     -1 
    GBMIN =  1e-12 
    RBDB =     50 
    RBPB =     50 
    RBSB =     50 
    RBPS =     50 
    RBPD =     50 
    CGSL = 3.23e-10 
    CGDL = 3.23e-10 
    CKAPPAS =    0.6 
    CKAPPAD =    0.6 
    CF = 5.478e-11 
    CLC =  1e-07 
    CLE =    0.6 
    DWC = -6.5e-08 
    DLC = 7.306e-08 
    DLCIG =  5e-09 
    DWJ =      0 
    VFBCV =     -1 
    ACDE = 0.5037 
    MOIN =      8 
    NOFF =    1.4 
    VOFFCV =  -0.02 
    DMCG = 9.9e-08 
    DMCI = 1.62e-07 
    DMDG =      0 
    DMCGT =      0 
    XGW =      0 
    XGL =      0 
    RSHG =    0.1 
    NGCON =      1 
    TCJ = 0.0008479 
    TPB = 0.001659 
    TCJSW = 0.000503 
    TPBSW = 0.002829 
    TCJSWG = 0.0002 
    TPBSWG = 0.0003037 
    SK0 =      0 
    SK1 =      0 
    SK2 =      0 
    SL =  2e-06 
    SW =  2e-06 
    K =      0 
    LCIT = -2e-10 
    LVSAT = 0.005595 
    LAT =  -0.07 
    LA0 = -9e-07 
    LAGS = 2.5e-07 
    LKETA = -3.24e-09 
    LKT2 = 1.227e-09 
    LVTH0 = -1.31e-08 
    LUA = 1.616e-16 
    LUA1 = 3.45e-17 
    LUB = -1e-25 
    LUB1 =  1e-25 
    LUC = 4.705e-18 
    LU0 = 1.215e-09 
    LDELTA = 3.23e-09 
    LETA0 = 4.292e-08 
    LETAB = 1.7e-08 
    LPCLM = 1.3e-07 
    LPDIBLC2 =  6e-10 
    LALPHA0 = 8.338e-13 
    LBETA0 = -1.837e-06 
    LAGIDL = -1.4e-16 
    LNOFF =  6e-07 
    LVOFFCV = -4e-08 
    WAT =  0.023 
    WA0 =  5e-09 
    WKETA = 3.031e-09 
    WKT1 = 1.029e-08 
    WVTH0 =  2e-09 
    WUA = -6.12e-17 
    WUB = 1.996e-26 
    WUB1 = 1.94e-25 
    WU0 =  2e-10 
    WPCLM = -1e-08 
    WAGIDL =  6e-16 
    PVSAT = -2.029e-09 
    PAT =  5e-09 
    PA0 = 9.04e-14 
    PKT1 =  8e-15 
    PK2 = -1e-16 
    PDVT1 = 5.016e-15 
    PVTH0 = -1e-15 
    PUA = 4.596e-23 
    PUA1 = 3.438e-24 
    PUB = -3.305e-32 
    PUB1 =  8e-33 
    PUC = -1.25e-24 
    PUC1 = 2.2e-24 
    PU0 = -2e-16 
    PVOFF = -2.128e-15 
    PETA0 = 1.08e-14 
    PAGIDL = -4e-22 
    TNOM =  298.1 
    CGSO = 9.5e-12 
    CGDO = 9.5e-12 
    CGBO =      0 
    XPART =      1 
    RSH =     14 
    JSS = 1.593e-07 
    JSWS = 1.013e-13 
    JSWGS = 1.53e-12 
    PBS =  0.729 
    MJS = 0.3168 
    PBSWS =   1.03 
    MJSWS = 0.1784 
    CJS = 0.001294 
    CJSWS = 6.083e-11 
    NJS = 0.9839 
    PBSWGS = 0.8317 
    MJSWGS =  0.465 
    CJSWGS = 1.698e-10 
    XTIS =      3 
    JSD = 1.593e-07 
    JSWD = 1.013e-13 
    JSWGD = 1.53e-12 
    PBD =  0.729 
    MJD = 0.3168 
    PBSWD =   1.03 
    MJSWD = 0.1784 
    CJD = 0.001294 
    CJSWD = 6.083e-11 
    NJD = 0.9839 
    PBSWGD = 0.8317 
    MJSWGD =  0.465 
    CJSWGD = 1.698e-10 
    XTID =      3 
    LMLT =      1 
    WMLT =      1 
    LINT =  4e-09 
    LL = -5e-15 
    LLC =      0 
    LLN =    0.9 
    LW =      0 
    LWC =      0 
    LWN =      1 
    LWL =      0 
    LWLC =      0 
    LMIN = 3.96e-07 
    LMAX = 0.0001 
    WINT = -2e-08 
    WL = -1.1e-14 
    WLC =      0 
    WLN =   0.98 
    WW =  9e-15 
    WWC =      0 
    WWN =   0.96 
    WWL =      0 
    WWLC =      0 
    WMIN = 2.88e-07 
    WMAX = 0.0001 
    NOIA = 5.223e+41 
    NOIB = 1.399e+26 
    NOIC =  6e+09 
    EM =  2e+09 
    EF =   1.21 
    AF =      1 
    KF =      0 
    TRS =      0 
    TRD =      0 
    TEMPMOD  =      0 
    LAMBDA   =      0 
    VTL      =  2e+05 m/s
    LC       =  5e-09 
    XN       =      3 
    LLAMBDA  =      0 
    LVTL     =      0 
    LXN      =      0 
    WLAMBDA  =      0 
    WVTL     =      0 
    WXN      =      0 
    PLAMBDA  =      0 
    PVTL     =      0 
    PXN      =      0 
    RNOIA    =  0.577 
    RNOIB    = 0.5164 
    SAREF(SA0) = 2.61e-07 m
    SBREF(SB0) = 2.61e-07 m
    WLOD     =      0 m
    KU0      =  3e-09 1/m
    KVSAT    =      1 
    KVTH0    =  4e-09 m
    TKU0     =      0 
    LLODKU0  =      1 
    WLODKU0  =      1 
    LLODVTH  =      1 
    WLODVTH  =      1 
    LKU0     =  2e-06 
    WKU0     =      0 
    PKU0     =      0 
    LKVTH0   =  7e-07 
    WKVTH0   =  3e-07 
    PKVTH0   =  2e-13 
    STK2     =      0 
    LODK2    =      1 
    STETA0   =      0 
    LODETA0  =      1 
    LXRCRG1  =      0 
    WXRCRG1  =      0 
    PXRCRG1  =      0 
    LXRCRG2  =      0 
    WXRCRG2  =      0 
    PXRCRG2  =      0 
 

    *** UCB's BSIM4.4.0 new diode model is activated. ***
    *** UCB's Diode Model Parameters ***

    JTSS         =      0 
    JTSSWS       =      0 
    JTSSWGS      =  7e-10 
    JTSD         =      0 
    JTSSWD       =      0 
    JTSSWGD      =  7e-10 
    NJTS         =     20 
    NJTSSW       =     20 
    NJTSSWG      =     20 
    XTSS         =   0.02 
    XTSSWS       =   0.02 
    XTSSWGS      =   0.02 
    XTSD         =   0.02 
    XTSSWD       =   0.02 
    XTSSWGD      =   0.02 
    TNJTS        =      0 
    TNJTSSW      =      0 
    TNJTSSWG     =      0 
    VFBSDOFF     =      0 
    LVFBSDOFF    =      0 
    WVFBSDOFF    =      0 
    PVFBSDOFF    =      0 
    LINTNOI      = -1.8e-08 
    VTSS         =     10 
    VTSD         =     10 
    VTSSWS       =     10 
    VTSSWD       =     10 
    VTSSWGS      =     10 
    VTSSWGD      =     10 
    TTDIOMOD     =      1 
 

    *** UCB's BSIM4.5.0 new model is activated. ***
    UD         =  1e+14 
    UD1        =      0 
    UP         =      0 
    LP         =  1e-08 
    TVOFF      =  0.005 
    TVFBSDOFF  =      0 
    RBPS0      =     50 
    RBPSL      =      0 
    RBPSW      =      0 
    RBPSNF     =      0 
    RBPD0      =     50 
    RBPDL      =      0 
    RBPDW      =      0 
    RBPDNF     =      0 
    RBPBX0     =    100 
    RBPBXL     =      0 
    RBPBXW     =      0 
    RBPBXNF    =      0 
    RBPBY0     =    100 
    RBPBYL     =      0 
    RBPBYW     =      0 
    RBPBYNF    =      0 
    RBSBX0     =    100 
    RBSBY0     =    100 
    RBDBX0     =    100 
    RBDBY0     =    100 
    RBSDBXL    =      0 
    RBSDBXW    =      0 
    RBSDBXNF   =      0 
    RBSDBYL    =      0 
    RBSDBYW    =      0 
    RBSDBYNF   =      0 
    LUD        =      0 
    LUD1       =      0 
    LUP        =      0 
    LLP        =      0 
    LTVOFF     =      0 
    LTVFBSDOFF =      0 
    WUD        =      0 
    WUD1       =      0 
    WUP        =      0 
    WLP        =      0 
    WTVOFF     = 6.4e-10 
    WTVFBSDOFF =      0 
    PUD        =      0 
    PUD1       =      0 
    PUP        =      0 
    PLP        =      0 
    PTVOFF     =      0 
    PTVFBSDOFF =      0 
    WEB        =     10 
    WEC        =      0 
    KVTH0WE    = -0.008 
    K2WE       =      0 
    KU0WE      = -0.004 
    SCREF      =  1e-06 
    WPEMOD     =      1 
    LKVTH0WE   = -6e-10 
    LK2WE      =      0 
    LKU0WE     =      0 
    WKVTH0WE   =  3e-10 
    WK2WE      =      0 
    WKU0WE     = -1e-10 
    PKVTH0WE   =  1e-16 
    PK2WE      =      0 
    PKU0WE     = -8e-17 
 

 
Model Name: pod33ll_ckt  

 BSIM4 Model (Level 54)

    MOBMOD = 0
    BINUNIT = 2
    PARAMCHK = 1
    CAPMOD = 2
    DIOMOD = 2
    RDSMOD = 1
    TRNQSMOD = 0
    ACNQSMOD = 0
    RBODYMOD = 0
    RGATEMOD = 0
    PERMOD = 1
    GEOMOD = 0
    RGEOMOD = 1
    FNOIMOD = 1
    TNOIMOD = 0
    IGCMOD = 0
    IGBMOD = 0
    STIMOD = 1
    VBFWDMOD = 0
    VERSION =    4.5 
    TOXREF = 6.02e-09 
    TOXE = 6.119e-09 
    TOXP = 5.979e-09 
    TOXM = 6.119e-09 
    DTOX = 1.4e-10 
    EPSROX =    3.9 
    CDSC =      0 
    CDSCB =      0 
    CDSCD =      0 
    CIT = 0.00063 
    NFACTOR =   1.05 
    XJ = 1.37e-07 
    VSAT = 8.5e+04 
    A0 =  1.495 
    AGS =  0.275 
    A1 =      0 
    A2 =      1 
    AT =  6e+04 
    KETA = -0.002248 
    NSUB =  6e+16 
    NDEP =  1e+17 
    NSD =  1e+20 
    NGATE =  1e+21 
    GAMMA1 =      0 
    GAMMA2 =      0 
    VBX =      0 
    VBM =     -3 
    XT = 1.55e-07 
    K1 =    0.6 
    KT1 = -0.1793 
    KT1L =  2e-08 
    KT2 = -0.02903 
    K2 =  -0.05 
    K3 =      0 
    K3B =    0.7 
    LPE0 =  7e-08 
    LPEB =      0 
    DVTP0 = -1e-07 
    DVTP1 =      0 
    W0 =      0 
    DVT0 =      7 
    DVT1 =   0.36 
    DVT2 =   0.01 
    DVT0W =      0 
    DVT1W =      0 
    DVT2W =      0 
    DROUT =   0.56 
    DSUB =   0.56 
    VTH0 = -0.642 
    EU =   1.67 
    UA = 2.579e-10 
    UA1 = 1.768e-09 
    UB = 1.231e-18 
    UB1 = -3.029e-18 
    UC = -2e-11 
    UC1 = 4.849e-12 
    U0 = 0.01046 
    UTE =     -1 
    VOFF = -0.132 
    VOFFL = -1.4e-08 
    MINV =  -0.08 
    FPROUT =      0 
    PDITS =      0 
    PDITSD =      0 
    PDITSL =      0 
    DELTA =  0.004 
    RDSW =    477 
    RDSWMIN =      0 
    RDWMIN =      0 
    RSWMIN =      0 
    RDW =    270 
    RSW =    270 
    PRWG =      0 
    PRWB =      0 
    PRT =      0 
    ETA0 =   0.08 
    ETAB = -0.152 
    PCLM =  0.362 
    PDIBLC1 =      0 
    PDIBLC2 = 3.06e-05 
    PDIBLCB =      0 
    PSCBE1 = 4.24e+09 
    PSCBE2 =  1e-08 
    PVAG =      0 
    WR =      1 
    DWG =      0 
    DWB =      0 
    XW = 1.23e-08 
    XWREF = 1.23e-08 
    XL = 1.36e-08 
    XLREF = 1.36e-08 
    B0 =      0 
    B1 =      0 
    ALPHA0 = -5.285e-06 
    ALPHA1 =   15.9 
    AGIDL =  5e-10 
    BGIDL =  2e+09 
    CGIDL =    0.5 
    PHIN = 0.04597 
    EGIDL =   0.37 
    AIGC = 0.0098 
    BIGC = 0.000759 
    CIGC =   0.03 
    AIGSD = 0.0098 
    BIGSD = 0.000759 
    CIGSD =   0.03 
    AIGBACC = 0.000949 
    BIGBACC = 0.00171 
    CIGBACC =  0.075 
    AIGBINV = 0.0111 
    BIGBINV = 0.000949 
    CIGBINV =  0.006 
    NIGC =      1 
    NIGBINV =      3 
    NIGBACC =      1 
    NTOX =      1 
    EIGBINV =    1.1 
    PIGCD =      1 
    POXEDGE =      1 
    XRCRG1 =     12 
    TNOIA =    1.5 
    TNOIB =    3.5 
    NTNOI =      1 
    XRCRG2 =      1 
    BETA0 =   33.6 
    IJTHDFWD =    0.1 
    IJTHSFWD =    0.1 
    IJTHDREV =    0.1 
    IJTHSREV =    0.1 
    XJBVD =      1 
    XJBVS =      1 
    BVD =   8.55 
    BVS =   8.55 
    VFB =     -1 
    GBMIN =  1e-12 
    RBDB =     50 
    RBPB =     50 
    RBSB =     50 
    RBPS =     50 
    RBPD =     50 
    CGSL = 3.23e-10 
    CGDL = 3.23e-10 
    CKAPPAS =    0.6 
    CKAPPAD =    0.6 
    CF = 5.478e-11 
    CLC =  1e-07 
    CLE =    0.6 
    DWC = -6.5e-08 
    DLC = 7.306e-08 
    DLCIG =  5e-09 
    DWJ =      0 
    VFBCV =     -1 
    ACDE = 0.5037 
    MOIN =      8 
    NOFF =    1.4 
    VOFFCV =  -0.02 
    DMCG = 9.9e-08 
    DMCI = 1.62e-07 
    DMDG =      0 
    DMCGT =      0 
    XGW =      0 
    XGL =      0 
    RSHG =    0.1 
    NGCON =      1 
    TCJ = 0.0008479 
    TPB = 0.001659 
    TCJSW = 0.000503 
    TPBSW = 0.002829 
    TCJSWG = 0.0002 
    TPBSWG = 0.0003037 
    SK0 =      0 
    SK1 =      0 
    SK2 =      0 
    SL =  2e-06 
    SW =  2e-06 
    K =      0 
    LCIT = -2e-10 
    LVSAT = 0.005595 
    LAT =  -0.07 
    LA0 = -9e-07 
    LAGS = 2.5e-07 
    LKETA = -3.24e-09 
    LKT2 = 1.227e-09 
    LVTH0 = -1.31e-08 
    LUA = 1.616e-16 
    LUA1 = 3.45e-17 
    LUB = -1e-25 
    LUB1 =  1e-25 
    LUC = 4.705e-18 
    LU0 = 1.215e-09 
    LDELTA = 3.23e-09 
    LETA0 = 4.292e-08 
    LETAB = 1.7e-08 
    LPCLM = 1.3e-07 
    LPDIBLC2 =  6e-10 
    LALPHA0 = 8.338e-13 
    LBETA0 = -1.837e-06 
    LAGIDL = -1.4e-16 
    LNOFF =  6e-07 
    LVOFFCV = -4e-08 
    WAT =  0.023 
    WA0 =  5e-09 
    WKETA = 3.031e-09 
    WKT1 = 1.029e-08 
    WVTH0 =  2e-09 
    WUA = -6.12e-17 
    WUB = 1.996e-26 
    WUB1 = 1.94e-25 
    WU0 =  2e-10 
    WPCLM = -1e-08 
    WAGIDL =  6e-16 
    PVSAT = -2.029e-09 
    PAT =  5e-09 
    PA0 = 9.04e-14 
    PKT1 =  8e-15 
    PK2 = -1e-16 
    PDVT1 = 5.016e-15 
    PVTH0 = -1e-15 
    PUA = 4.596e-23 
    PUA1 = 3.438e-24 
    PUB = -3.305e-32 
    PUB1 =  8e-33 
    PUC = -1.25e-24 
    PUC1 = 2.2e-24 
    PU0 = -2e-16 
    PVOFF = -2.128e-15 
    PETA0 = 1.08e-14 
    PAGIDL = -4e-22 
    TNOM =  298.1 
    CGSO = 9.5e-12 
    CGDO = 9.5e-12 
    CGBO =      0 
    XPART =      1 
    RSH =     14 
    JSS = 1.593e-07 
    JSWS = 1.013e-13 
    JSWGS = 1.53e-12 
    PBS =  0.729 
    MJS = 0.3168 
    PBSWS =   1.03 
    MJSWS = 0.1784 
    CJS = 0.001294 
    CJSWS = 6.083e-11 
    NJS = 0.9839 
    PBSWGS = 0.8317 
    MJSWGS =  0.465 
    CJSWGS = 1.698e-10 
    XTIS =      3 
    JSD = 1.593e-07 
    JSWD = 1.013e-13 
    JSWGD = 1.53e-12 
    PBD =  0.729 
    MJD = 0.3168 
    PBSWD =   1.03 
    MJSWD = 0.1784 
    CJD = 0.001294 
    CJSWD = 6.083e-11 
    NJD = 0.9839 
    PBSWGD = 0.8317 
    MJSWGD =  0.465 
    CJSWGD = 1.698e-10 
    XTID =      3 
    LMLT =      1 
    WMLT =      1 
    LINT =  4e-09 
    LL = -5e-15 
    LLC =      0 
    LLN =    0.9 
    LW =      0 
    LWC =      0 
    LWN =      1 
    LWL =      0 
    LWLC =      0 
    LMIN = 3.96e-07 
    LMAX = 0.0001 
    WINT = -2e-08 
    WL = -1.1e-14 
    WLC =      0 
    WLN =   0.98 
    WW =  9e-15 
    WWC =      0 
    WWN =   0.96 
    WWL =      0 
    WWLC =      0 
    WMIN = 2.88e-07 
    WMAX = 0.0001 
    NOIA = 5.223e+41 
    NOIB = 1.399e+26 
    NOIC =  6e+09 
    EM =  2e+09 
    EF =   1.21 
    AF =      1 
    KF =      0 
    TRS =      0 
    TRD =      0 
    TEMPMOD  =      0 
    LAMBDA   =      0 
    VTL      =  2e+05 m/s
    LC       =  5e-09 
    XN       =      3 
    LLAMBDA  =      0 
    LVTL     =      0 
    LXN      =      0 
    WLAMBDA  =      0 
    WVTL     =      0 
    WXN      =      0 
    PLAMBDA  =      0 
    PVTL     =      0 
    PXN      =      0 
    RNOIA    =  0.577 
    RNOIB    = 0.5164 
    SAREF(SA0) = 2.61e-07 m
    SBREF(SB0) = 2.61e-07 m
    WLOD     =      0 m
    KU0      =  3e-09 1/m
    KVSAT    =      1 
    KVTH0    =  4e-09 m
    TKU0     =      0 
    LLODKU0  =      1 
    WLODKU0  =      1 
    LLODVTH  =      1 
    WLODVTH  =      1 
    LKU0     =  2e-06 
    WKU0     =      0 
    PKU0     =      0 
    LKVTH0   =  7e-07 
    WKVTH0   =  3e-07 
    PKVTH0   =  2e-13 
    STK2     =      0 
    LODK2    =      1 
    STETA0   =      0 
    LODETA0  =      1 
    LXRCRG1  =      0 
    WXRCRG1  =      0 
    PXRCRG1  =      0 
    LXRCRG2  =      0 
    WXRCRG2  =      0 
    PXRCRG2  =      0 
 

    *** UCB's BSIM4.4.0 new diode model is activated. ***
    *** UCB's Diode Model Parameters ***

    JTSS         =      0 
    JTSSWS       =      0 
    JTSSWGS      =  7e-10 
    JTSD         =      0 
    JTSSWD       =      0 
    JTSSWGD      =  7e-10 
    NJTS         =     20 
    NJTSSW       =     20 
    NJTSSWG      =     20 
    XTSS         =   0.02 
    XTSSWS       =   0.02 
    XTSSWGS      =   0.02 
    XTSD         =   0.02 
    XTSSWD       =   0.02 
    XTSSWGD      =   0.02 
    TNJTS        =      0 
    TNJTSSW      =      0 
    TNJTSSWG     =      0 
    VFBSDOFF     =      0 
    LVFBSDOFF    =      0 
    WVFBSDOFF    =      0 
    PVFBSDOFF    =      0 
    LINTNOI      = -1.8e-08 
    VTSS         =     10 
    VTSD         =     10 
    VTSSWS       =     10 
    VTSSWD       =     10 
    VTSSWGS      =     10 
    VTSSWGD      =     10 
    TTDIOMOD     =      1 
 

    *** UCB's BSIM4.5.0 new model is activated. ***
    UD         =  1e+14 
    UD1        =      0 
    UP         =      0 
    LP         =  1e-08 
    TVOFF      =  0.005 
    TVFBSDOFF  =      0 
    RBPS0      =     50 
    RBPSL      =      0 
    RBPSW      =      0 
    RBPSNF     =      0 
    RBPD0      =     50 
    RBPDL      =      0 
    RBPDW      =      0 
    RBPDNF     =      0 
    RBPBX0     =    100 
    RBPBXL     =      0 
    RBPBXW     =      0 
    RBPBXNF    =      0 
    RBPBY0     =    100 
    RBPBYL     =      0 
    RBPBYW     =      0 
    RBPBYNF    =      0 
    RBSBX0     =    100 
    RBSBY0     =    100 
    RBDBX0     =    100 
    RBDBY0     =    100 
    RBSDBXL    =      0 
    RBSDBXW    =      0 
    RBSDBXNF   =      0 
    RBSDBYL    =      0 
    RBSDBYW    =      0 
    RBSDBYNF   =      0 
    LUD        =      0 
    LUD1       =      0 
    LUP        =      0 
    LLP        =      0 
    LTVOFF     =      0 
    LTVFBSDOFF =      0 
    WUD        =      0 
    WUD1       =      0 
    WUP        =      0 
    WLP        =      0 
    WTVOFF     = 6.4e-10 
    WTVFBSDOFF =      0 
    PUD        =      0 
    PUD1       =      0 
    PUP        =      0 
    PLP        =      0 
    PTVOFF     =      0 
    PTVFBSDOFF =      0 
    WEB        =     10 
    WEC        =      0 
    KVTH0WE    = -0.008 
    K2WE       =      0 
    KU0WE      = -0.004 
    SCREF      =  1e-06 
    WPEMOD     =      1 
    LKVTH0WE   = -6e-10 
    LK2WE      =      0 
    LKU0WE     =      0 
    WKVTH0WE   =  3e-10 
    WK2WE      =      0 
    WKU0WE     = -1e-10 
    PKVTH0WE   =  1e-16 
    PK2WE      =      0 
    PKU0WE     = -8e-17 
 

 
Model Name: pod33ll_ckt  

 BSIM4 Model (Level 54)

    MOBMOD = 0
    BINUNIT = 2
    PARAMCHK = 1
    CAPMOD = 2
    DIOMOD = 2
    RDSMOD = 1
    TRNQSMOD = 0
    ACNQSMOD = 0
    RBODYMOD = 0
    RGATEMOD = 0
    PERMOD = 1
    GEOMOD = 0
    RGEOMOD = 1
    FNOIMOD = 1
    TNOIMOD = 0
    IGCMOD = 0
    IGBMOD = 0
    STIMOD = 1
    VBFWDMOD = 0
    VERSION =    4.5 
    TOXREF = 6.02e-09 
    TOXE = 6.119e-09 
    TOXP = 5.979e-09 
    TOXM = 6.119e-09 
    DTOX = 1.4e-10 
    EPSROX =    3.9 
    CDSC =      0 
    CDSCB =      0 
    CDSCD =      0 
    CIT = 0.00063 
    NFACTOR =   1.05 
    XJ = 1.37e-07 
    VSAT = 8.5e+04 
    A0 =  1.495 
    AGS =  0.275 
    A1 =      0 
    A2 =      1 
    AT =  6e+04 
    KETA = -0.002248 
    NSUB =  6e+16 
    NDEP =  1e+17 
    NSD =  1e+20 
    NGATE =  1e+21 
    GAMMA1 =      0 
    GAMMA2 =      0 
    VBX =      0 
    VBM =     -3 
    XT = 1.55e-07 
    K1 =    0.6 
    KT1 = -0.1793 
    KT1L =  2e-08 
    KT2 = -0.02903 
    K2 =  -0.05 
    K3 =      0 
    K3B =    0.7 
    LPE0 =  7e-08 
    LPEB =      0 
    DVTP0 = -1e-07 
    DVTP1 =      0 
    W0 =      0 
    DVT0 =      7 
    DVT1 =   0.36 
    DVT2 =   0.01 
    DVT0W =      0 
    DVT1W =      0 
    DVT2W =      0 
    DROUT =   0.56 
    DSUB =   0.56 
    VTH0 = -0.642 
    EU =   1.67 
    UA = 2.579e-10 
    UA1 = 1.768e-09 
    UB = 1.231e-18 
    UB1 = -3.029e-18 
    UC = -2e-11 
    UC1 = 4.849e-12 
    U0 = 0.01046 
    UTE =     -1 
    VOFF = -0.132 
    VOFFL = -1.4e-08 
    MINV =  -0.08 
    FPROUT =      0 
    PDITS =      0 
    PDITSD =      0 
    PDITSL =      0 
    DELTA =  0.004 
    RDSW =    477 
    RDSWMIN =      0 
    RDWMIN =      0 
    RSWMIN =      0 
    RDW =    270 
    RSW =    270 
    PRWG =      0 
    PRWB =      0 
    PRT =      0 
    ETA0 =   0.08 
    ETAB = -0.152 
    PCLM =  0.362 
    PDIBLC1 =      0 
    PDIBLC2 = 3.06e-05 
    PDIBLCB =      0 
    PSCBE1 = 4.24e+09 
    PSCBE2 =  1e-08 
    PVAG =      0 
    WR =      1 
    DWG =      0 
    DWB =      0 
    XW = 1.23e-08 
    XWREF = 1.23e-08 
    XL = 1.36e-08 
    XLREF = 1.36e-08 
    B0 =      0 
    B1 =      0 
    ALPHA0 = -5.285e-06 
    ALPHA1 =   15.9 
    AGIDL =  5e-10 
    BGIDL =  2e+09 
    CGIDL =    0.5 
    PHIN = 0.04597 
    EGIDL =   0.37 
    AIGC = 0.0098 
    BIGC = 0.000759 
    CIGC =   0.03 
    AIGSD = 0.0098 
    BIGSD = 0.000759 
    CIGSD =   0.03 
    AIGBACC = 0.000949 
    BIGBACC = 0.00171 
    CIGBACC =  0.075 
    AIGBINV = 0.0111 
    BIGBINV = 0.000949 
    CIGBINV =  0.006 
    NIGC =      1 
    NIGBINV =      3 
    NIGBACC =      1 
    NTOX =      1 
    EIGBINV =    1.1 
    PIGCD =      1 
    POXEDGE =      1 
    XRCRG1 =     12 
    TNOIA =    1.5 
    TNOIB =    3.5 
    NTNOI =      1 
    XRCRG2 =      1 
    BETA0 =   33.6 
    IJTHDFWD =    0.1 
    IJTHSFWD =    0.1 
    IJTHDREV =    0.1 
    IJTHSREV =    0.1 
    XJBVD =      1 
    XJBVS =      1 
    BVD =   8.55 
    BVS =   8.55 
    VFB =     -1 
    GBMIN =  1e-12 
    RBDB =     50 
    RBPB =     50 
    RBSB =     50 
    RBPS =     50 
    RBPD =     50 
    CGSL = 3.23e-10 
    CGDL = 3.23e-10 
    CKAPPAS =    0.6 
    CKAPPAD =    0.6 
    CF = 5.478e-11 
    CLC =  1e-07 
    CLE =    0.6 
    DWC = -6.5e-08 
    DLC = 7.306e-08 
    DLCIG =  5e-09 
    DWJ =      0 
    VFBCV =     -1 
    ACDE = 0.5037 
    MOIN =      8 
    NOFF =    1.4 
    VOFFCV =  -0.02 
    DMCG = 9.9e-08 
    DMCI = 1.62e-07 
    DMDG =      0 
    DMCGT =      0 
    XGW =      0 
    XGL =      0 
    RSHG =    0.1 
    NGCON =      1 
    TCJ = 0.0008479 
    TPB = 0.001659 
    TCJSW = 0.000503 
    TPBSW = 0.002829 
    TCJSWG = 0.0002 
    TPBSWG = 0.0003037 
    SK0 =      0 
    SK1 =      0 
    SK2 =      0 
    SL =  2e-06 
    SW =  2e-06 
    K =      0 
    LCIT = -2e-10 
    LVSAT = 0.005595 
    LAT =  -0.07 
    LA0 = -9e-07 
    LAGS = 2.5e-07 
    LKETA = -3.24e-09 
    LKT2 = 1.227e-09 
    LVTH0 = -1.31e-08 
    LUA = 1.616e-16 
    LUA1 = 3.45e-17 
    LUB = -1e-25 
    LUB1 =  1e-25 
    LUC = 4.705e-18 
    LU0 = 1.215e-09 
    LDELTA = 3.23e-09 
    LETA0 = 4.292e-08 
    LETAB = 1.7e-08 
    LPCLM = 1.3e-07 
    LPDIBLC2 =  6e-10 
    LALPHA0 = 8.338e-13 
    LBETA0 = -1.837e-06 
    LAGIDL = -1.4e-16 
    LNOFF =  6e-07 
    LVOFFCV = -4e-08 
    WAT =  0.023 
    WA0 =  5e-09 
    WKETA = 3.031e-09 
    WKT1 = 1.029e-08 
    WVTH0 =  2e-09 
    WUA = -6.12e-17 
    WUB = 1.996e-26 
    WUB1 = 1.94e-25 
    WU0 =  2e-10 
    WPCLM = -1e-08 
    WAGIDL =  6e-16 
    PVSAT = -2.029e-09 
    PAT =  5e-09 
    PA0 = 9.04e-14 
    PKT1 =  8e-15 
    PK2 = -1e-16 
    PDVT1 = 5.016e-15 
    PVTH0 = -1e-15 
    PUA = 4.596e-23 
    PUA1 = 3.438e-24 
    PUB = -3.305e-32 
    PUB1 =  8e-33 
    PUC = -1.25e-24 
    PUC1 = 2.2e-24 
    PU0 = -2e-16 
    PVOFF = -2.128e-15 
    PETA0 = 1.08e-14 
    PAGIDL = -4e-22 
    TNOM =  298.1 
    CGSO = 9.5e-12 
    CGDO = 9.5e-12 
    CGBO =      0 
    XPART =      1 
    RSH =     14 
    JSS = 1.593e-07 
    JSWS = 1.013e-13 
    JSWGS = 1.53e-12 
    PBS =  0.729 
    MJS = 0.3168 
    PBSWS =   1.03 
    MJSWS = 0.1784 
    CJS = 0.001294 
    CJSWS = 6.083e-11 
    NJS = 0.9839 
    PBSWGS = 0.8317 
    MJSWGS =  0.465 
    CJSWGS = 1.698e-10 
    XTIS =      3 
    JSD = 1.593e-07 
    JSWD = 1.013e-13 
    JSWGD = 1.53e-12 
    PBD =  0.729 
    MJD = 0.3168 
    PBSWD =   1.03 
    MJSWD = 0.1784 
    CJD = 0.001294 
    CJSWD = 6.083e-11 
    NJD = 0.9839 
    PBSWGD = 0.8317 
    MJSWGD =  0.465 
    CJSWGD = 1.698e-10 
    XTID =      3 
    LMLT =      1 
    WMLT =      1 
    LINT =  4e-09 
    LL = -5e-15 
    LLC =      0 
    LLN =    0.9 
    LW =      0 
    LWC =      0 
    LWN =      1 
    LWL =      0 
    LWLC =      0 
    LMIN = 3.96e-07 
    LMAX = 0.0001 
    WINT = -2e-08 
    WL = -1.1e-14 
    WLC =      0 
    WLN =   0.98 
    WW =  9e-15 
    WWC =      0 
    WWN =   0.96 
    WWL =      0 
    WWLC =      0 
    WMIN = 2.88e-07 
    WMAX = 0.0001 
    NOIA = 5.223e+41 
    NOIB = 1.399e+26 
    NOIC =  6e+09 
    EM =  2e+09 
    EF =   1.21 
    AF =      1 
    KF =      0 
    TRS =      0 
    TRD =      0 
    TEMPMOD  =      0 
    LAMBDA   =      0 
    VTL      =  2e+05 m/s
    LC       =  5e-09 
    XN       =      3 
    LLAMBDA  =      0 
    LVTL     =      0 
    LXN      =      0 
    WLAMBDA  =      0 
    WVTL     =      0 
    WXN      =      0 
    PLAMBDA  =      0 
    PVTL     =      0 
    PXN      =      0 
    RNOIA    =  0.577 
    RNOIB    = 0.5164 
    SAREF(SA0) = 2.61e-07 m
    SBREF(SB0) = 2.61e-07 m
    WLOD     =      0 m
    KU0      =  3e-09 1/m
    KVSAT    =      1 
    KVTH0    =  4e-09 m
    TKU0     =      0 
    LLODKU0  =      1 
    WLODKU0  =      1 
    LLODVTH  =      1 
    WLODVTH  =      1 
    LKU0     =  2e-06 
    WKU0     =      0 
    PKU0     =      0 
    LKVTH0   =  7e-07 
    WKVTH0   =  3e-07 
    PKVTH0   =  2e-13 
    STK2     =      0 
    LODK2    =      1 
    STETA0   =      0 
    LODETA0  =      1 
    LXRCRG1  =      0 
    WXRCRG1  =      0 
    PXRCRG1  =      0 
    LXRCRG2  =      0 
    WXRCRG2  =      0 
    PXRCRG2  =      0 
 

    *** UCB's BSIM4.4.0 new diode model is activated. ***
    *** UCB's Diode Model Parameters ***

    JTSS         =      0 
    JTSSWS       =      0 
    JTSSWGS      =  7e-10 
    JTSD         =      0 
    JTSSWD       =      0 
    JTSSWGD      =  7e-10 
    NJTS         =     20 
    NJTSSW       =     20 
    NJTSSWG      =     20 
    XTSS         =   0.02 
    XTSSWS       =   0.02 
    XTSSWGS      =   0.02 
    XTSD         =   0.02 
    XTSSWD       =   0.02 
    XTSSWGD      =   0.02 
    TNJTS        =      0 
    TNJTSSW      =      0 
    TNJTSSWG     =      0 
    VFBSDOFF     =      0 
    LVFBSDOFF    =      0 
    WVFBSDOFF    =      0 
    PVFBSDOFF    =      0 
    LINTNOI      = -1.8e-08 
    VTSS         =     10 
    VTSD         =     10 
    VTSSWS       =     10 
    VTSSWD       =     10 
    VTSSWGS      =     10 
    VTSSWGD      =     10 
    TTDIOMOD     =      1 
 

    *** UCB's BSIM4.5.0 new model is activated. ***
    UD         =  1e+14 
    UD1        =      0 
    UP         =      0 
    LP         =  1e-08 
    TVOFF      =  0.005 
    TVFBSDOFF  =      0 
    RBPS0      =     50 
    RBPSL      =      0 
    RBPSW      =      0 
    RBPSNF     =      0 
    RBPD0      =     50 
    RBPDL      =      0 
    RBPDW      =      0 
    RBPDNF     =      0 
    RBPBX0     =    100 
    RBPBXL     =      0 
    RBPBXW     =      0 
    RBPBXNF    =      0 
    RBPBY0     =    100 
    RBPBYL     =      0 
    RBPBYW     =      0 
    RBPBYNF    =      0 
    RBSBX0     =    100 
    RBSBY0     =    100 
    RBDBX0     =    100 
    RBDBY0     =    100 
    RBSDBXL    =      0 
    RBSDBXW    =      0 
    RBSDBXNF   =      0 
    RBSDBYL    =      0 
    RBSDBYW    =      0 
    RBSDBYNF   =      0 
    LUD        =      0 
    LUD1       =      0 
    LUP        =      0 
    LLP        =      0 
    LTVOFF     =      0 
    LTVFBSDOFF =      0 
    WUD        =      0 
    WUD1       =      0 
    WUP        =      0 
    WLP        =      0 
    WTVOFF     = 6.4e-10 
    WTVFBSDOFF =      0 
    PUD        =      0 
    PUD1       =      0 
    PUP        =      0 
    PLP        =      0 
    PTVOFF     =      0 
    PTVFBSDOFF =      0 
    WEB        =     10 
    WEC        =      0 
    KVTH0WE    = -0.008 
    K2WE       =      0 
    KU0WE      = -0.004 
    SCREF      =  1e-06 
    WPEMOD     =      1 
    LKVTH0WE   = -6e-10 
    LK2WE      =      0 
    LKU0WE     =      0 
    WKVTH0WE   =  3e-10 
    WK2WE      =      0 
    WKU0WE     = -1e-10 
    PKVTH0WE   =  1e-16 
    PK2WE      =      0 
    PKU0WE     = -8e-17 
 

 
Model Name: pod33ll_ckt  

 BSIM4 Model (Level 54)

    MOBMOD = 0
    BINUNIT = 2
    PARAMCHK = 1
    CAPMOD = 2
    DIOMOD = 2
    RDSMOD = 1
    TRNQSMOD = 0
    ACNQSMOD = 0
    RBODYMOD = 0
    RGATEMOD = 0
    PERMOD = 1
    GEOMOD = 0
    RGEOMOD = 1
    FNOIMOD = 1
    TNOIMOD = 0
    IGCMOD = 0
    IGBMOD = 0
    STIMOD = 1
    VBFWDMOD = 0
    VERSION =    4.5 
    TOXREF = 6.02e-09 
    TOXE = 6.119e-09 
    TOXP = 5.979e-09 
    TOXM = 6.119e-09 
    DTOX = 1.4e-10 
    EPSROX =    3.9 
    CDSC =      0 
    CDSCB =      0 
    CDSCD =      0 
    CIT = 0.00063 
    NFACTOR =   1.05 
    XJ = 1.37e-07 
    VSAT = 8.5e+04 
    A0 =  1.495 
    AGS =  0.275 
    A1 =      0 
    A2 =      1 
    AT =  6e+04 
    KETA = -0.002248 
    NSUB =  6e+16 
    NDEP =  1e+17 
    NSD =  1e+20 
    NGATE =  1e+21 
    GAMMA1 =      0 
    GAMMA2 =      0 
    VBX =      0 
    VBM =     -3 
    XT = 1.55e-07 
    K1 =    0.6 
    KT1 = -0.1793 
    KT1L =  2e-08 
    KT2 = -0.02903 
    K2 =  -0.05 
    K3 =      0 
    K3B =    0.7 
    LPE0 =  7e-08 
    LPEB =      0 
    DVTP0 = -1e-07 
    DVTP1 =      0 
    W0 =      0 
    DVT0 =      7 
    DVT1 =   0.36 
    DVT2 =   0.01 
    DVT0W =      0 
    DVT1W =      0 
    DVT2W =      0 
    DROUT =   0.56 
    DSUB =   0.56 
    VTH0 = -0.642 
    EU =   1.67 
    UA = 2.579e-10 
    UA1 = 1.768e-09 
    UB = 1.231e-18 
    UB1 = -3.029e-18 
    UC = -2e-11 
    UC1 = 4.849e-12 
    U0 = 0.01046 
    UTE =     -1 
    VOFF = -0.132 
    VOFFL = -1.4e-08 
    MINV =  -0.08 
    FPROUT =      0 
    PDITS =      0 
    PDITSD =      0 
    PDITSL =      0 
    DELTA =  0.004 
    RDSW =    477 
    RDSWMIN =      0 
    RDWMIN =      0 
    RSWMIN =      0 
    RDW =    270 
    RSW =    270 
    PRWG =      0 
    PRWB =      0 
    PRT =      0 
    ETA0 =   0.08 
    ETAB = -0.152 
    PCLM =  0.362 
    PDIBLC1 =      0 
    PDIBLC2 = 3.06e-05 
    PDIBLCB =      0 
    PSCBE1 = 4.24e+09 
    PSCBE2 =  1e-08 
    PVAG =      0 
    WR =      1 
    DWG =      0 
    DWB =      0 
    XW = 1.23e-08 
    XWREF = 1.23e-08 
    XL = 1.36e-08 
    XLREF = 1.36e-08 
    B0 =      0 
    B1 =      0 
    ALPHA0 = -5.285e-06 
    ALPHA1 =   15.9 
    AGIDL =  5e-10 
    BGIDL =  2e+09 
    CGIDL =    0.5 
    PHIN = 0.04597 
    EGIDL =   0.37 
    AIGC = 0.0098 
    BIGC = 0.000759 
    CIGC =   0.03 
    AIGSD = 0.0098 
    BIGSD = 0.000759 
    CIGSD =   0.03 
    AIGBACC = 0.000949 
    BIGBACC = 0.00171 
    CIGBACC =  0.075 
    AIGBINV = 0.0111 
    BIGBINV = 0.000949 
    CIGBINV =  0.006 
    NIGC =      1 
    NIGBINV =      3 
    NIGBACC =      1 
    NTOX =      1 
    EIGBINV =    1.1 
    PIGCD =      1 
    POXEDGE =      1 
    XRCRG1 =     12 
    TNOIA =    1.5 
    TNOIB =    3.5 
    NTNOI =      1 
    XRCRG2 =      1 
    BETA0 =   33.6 
    IJTHDFWD =    0.1 
    IJTHSFWD =    0.1 
    IJTHDREV =    0.1 
    IJTHSREV =    0.1 
    XJBVD =      1 
    XJBVS =      1 
    BVD =   8.55 
    BVS =   8.55 
    VFB =     -1 
    GBMIN =  1e-12 
    RBDB =     50 
    RBPB =     50 
    RBSB =     50 
    RBPS =     50 
    RBPD =     50 
    CGSL = 3.23e-10 
    CGDL = 3.23e-10 
    CKAPPAS =    0.6 
    CKAPPAD =    0.6 
    CF = 5.478e-11 
    CLC =  1e-07 
    CLE =    0.6 
    DWC = -6.5e-08 
    DLC = 7.306e-08 
    DLCIG =  5e-09 
    DWJ =      0 
    VFBCV =     -1 
    ACDE = 0.5037 
    MOIN =      8 
    NOFF =    1.4 
    VOFFCV =  -0.02 
    DMCG = 9.9e-08 
    DMCI = 1.62e-07 
    DMDG =      0 
    DMCGT =      0 
    XGW =      0 
    XGL =      0 
    RSHG =    0.1 
    NGCON =      1 
    TCJ = 0.0008479 
    TPB = 0.001659 
    TCJSW = 0.000503 
    TPBSW = 0.002829 
    TCJSWG = 0.0002 
    TPBSWG = 0.0003037 
    SK0 =      0 
    SK1 =      0 
    SK2 =      0 
    SL =  2e-06 
    SW =  2e-06 
    K =      0 
    LCIT = -2e-10 
    LVSAT = 0.005595 
    LAT =  -0.07 
    LA0 = -9e-07 
    LAGS = 2.5e-07 
    LKETA = -3.24e-09 
    LKT2 = 1.227e-09 
    LVTH0 = -1.31e-08 
    LUA = 1.616e-16 
    LUA1 = 3.45e-17 
    LUB = -1e-25 
    LUB1 =  1e-25 
    LUC = 4.705e-18 
    LU0 = 1.215e-09 
    LDELTA = 3.23e-09 
    LETA0 = 4.292e-08 
    LETAB = 1.7e-08 
    LPCLM = 1.3e-07 
    LPDIBLC2 =  6e-10 
    LALPHA0 = 8.338e-13 
    LBETA0 = -1.837e-06 
    LAGIDL = -1.4e-16 
    LNOFF =  6e-07 
    LVOFFCV = -4e-08 
    WAT =  0.023 
    WA0 =  5e-09 
    WKETA = 3.031e-09 
    WKT1 = 1.029e-08 
    WVTH0 =  2e-09 
    WUA = -6.12e-17 
    WUB = 1.996e-26 
    WUB1 = 1.94e-25 
    WU0 =  2e-10 
    WPCLM = -1e-08 
    WAGIDL =  6e-16 
    PVSAT = -2.029e-09 
    PAT =  5e-09 
    PA0 = 9.04e-14 
    PKT1 =  8e-15 
    PK2 = -1e-16 
    PDVT1 = 5.016e-15 
    PVTH0 = -1e-15 
    PUA = 4.596e-23 
    PUA1 = 3.438e-24 
    PUB = -3.305e-32 
    PUB1 =  8e-33 
    PUC = -1.25e-24 
    PUC1 = 2.2e-24 
    PU0 = -2e-16 
    PVOFF = -2.128e-15 
    PETA0 = 1.08e-14 
    PAGIDL = -4e-22 
    TNOM =  298.1 
    CGSO = 9.5e-12 
    CGDO = 9.5e-12 
    CGBO =      0 
    XPART =      1 
    RSH =     14 
    JSS = 1.593e-07 
    JSWS = 1.013e-13 
    JSWGS = 1.53e-12 
    PBS =  0.729 
    MJS = 0.3168 
    PBSWS =   1.03 
    MJSWS = 0.1784 
    CJS = 0.001294 
    CJSWS = 6.083e-11 
    NJS = 0.9839 
    PBSWGS = 0.8317 
    MJSWGS =  0.465 
    CJSWGS = 1.698e-10 
    XTIS =      3 
    JSD = 1.593e-07 
    JSWD = 1.013e-13 
    JSWGD = 1.53e-12 
    PBD =  0.729 
    MJD = 0.3168 
    PBSWD =   1.03 
    MJSWD = 0.1784 
    CJD = 0.001294 
    CJSWD = 6.083e-11 
    NJD = 0.9839 
    PBSWGD = 0.8317 
    MJSWGD =  0.465 
    CJSWGD = 1.698e-10 
    XTID =      3 
    LMLT =      1 
    WMLT =      1 
    LINT =  4e-09 
    LL = -5e-15 
    LLC =      0 
    LLN =    0.9 
    LW =      0 
    LWC =      0 
    LWN =      1 
    LWL =      0 
    LWLC =      0 
    LMIN = 3.96e-07 
    LMAX = 0.0001 
    WINT = -2e-08 
    WL = -1.1e-14 
    WLC =      0 
    WLN =   0.98 
    WW =  9e-15 
    WWC =      0 
    WWN =   0.96 
    WWL =      0 
    WWLC =      0 
    WMIN = 2.88e-07 
    WMAX = 0.0001 
    NOIA = 5.223e+41 
    NOIB = 1.399e+26 
    NOIC =  6e+09 
    EM =  2e+09 
    EF =   1.21 
    AF =      1 
    KF =      0 
    TRS =      0 
    TRD =      0 
    TEMPMOD  =      0 
    LAMBDA   =      0 
    VTL      =  2e+05 m/s
    LC       =  5e-09 
    XN       =      3 
    LLAMBDA  =      0 
    LVTL     =      0 
    LXN      =      0 
    WLAMBDA  =      0 
    WVTL     =      0 
    WXN      =      0 
    PLAMBDA  =      0 
    PVTL     =      0 
    PXN      =      0 
    RNOIA    =  0.577 
    RNOIB    = 0.5164 
    SAREF(SA0) = 2.61e-07 m
    SBREF(SB0) = 2.61e-07 m
    WLOD     =      0 m
    KU0      =  3e-09 1/m
    KVSAT    =      1 
    KVTH0    =  4e-09 m
    TKU0     =      0 
    LLODKU0  =      1 
    WLODKU0  =      1 
    LLODVTH  =      1 
    WLODVTH  =      1 
    LKU0     =  2e-06 
    WKU0     =      0 
    PKU0     =      0 
    LKVTH0   =  7e-07 
    WKVTH0   =  3e-07 
    PKVTH0   =  2e-13 
    STK2     =      0 
    LODK2    =      1 
    STETA0   =      0 
    LODETA0  =      1 
    LXRCRG1  =      0 
    WXRCRG1  =      0 
    PXRCRG1  =      0 
    LXRCRG2  =      0 
    WXRCRG2  =      0 
    PXRCRG2  =      0 
 

    *** UCB's BSIM4.4.0 new diode model is activated. ***
    *** UCB's Diode Model Parameters ***

    JTSS         =      0 
    JTSSWS       =      0 
    JTSSWGS      =  7e-10 
    JTSD         =      0 
    JTSSWD       =      0 
    JTSSWGD      =  7e-10 
    NJTS         =     20 
    NJTSSW       =     20 
    NJTSSWG      =     20 
    XTSS         =   0.02 
    XTSSWS       =   0.02 
    XTSSWGS      =   0.02 
    XTSD         =   0.02 
    XTSSWD       =   0.02 
    XTSSWGD      =   0.02 
    TNJTS        =      0 
    TNJTSSW      =      0 
    TNJTSSWG     =      0 
    VFBSDOFF     =      0 
    LVFBSDOFF    =      0 
    WVFBSDOFF    =      0 
    PVFBSDOFF    =      0 
    LINTNOI      = -1.8e-08 
    VTSS         =     10 
    VTSD         =     10 
    VTSSWS       =     10 
    VTSSWD       =     10 
    VTSSWGS      =     10 
    VTSSWGD      =     10 
    TTDIOMOD     =      1 
 

    *** UCB's BSIM4.5.0 new model is activated. ***
    UD         =  1e+14 
    UD1        =      0 
    UP         =      0 
    LP         =  1e-08 
    TVOFF      =  0.005 
    TVFBSDOFF  =      0 
    RBPS0      =     50 
    RBPSL      =      0 
    RBPSW      =      0 
    RBPSNF     =      0 
    RBPD0      =     50 
    RBPDL      =      0 
    RBPDW      =      0 
    RBPDNF     =      0 
    RBPBX0     =    100 
    RBPBXL     =      0 
    RBPBXW     =      0 
    RBPBXNF    =      0 
    RBPBY0     =    100 
    RBPBYL     =      0 
    RBPBYW     =      0 
    RBPBYNF    =      0 
    RBSBX0     =    100 
    RBSBY0     =    100 
    RBDBX0     =    100 
    RBDBY0     =    100 
    RBSDBXL    =      0 
    RBSDBXW    =      0 
    RBSDBXNF   =      0 
    RBSDBYL    =      0 
    RBSDBYW    =      0 
    RBSDBYNF   =      0 
    LUD        =      0 
    LUD1       =      0 
    LUP        =      0 
    LLP        =      0 
    LTVOFF     =      0 
    LTVFBSDOFF =      0 
    WUD        =      0 
    WUD1       =      0 
    WUP        =      0 
    WLP        =      0 
    WTVOFF     = 6.4e-10 
    WTVFBSDOFF =      0 
    PUD        =      0 
    PUD1       =      0 
    PUP        =      0 
    PLP        =      0 
    PTVOFF     =      0 
    PTVFBSDOFF =      0 
    WEB        =     10 
    WEC        =      0 
    KVTH0WE    = -0.008 
    K2WE       =      0 
    KU0WE      = -0.004 
    SCREF      =  1e-06 
    WPEMOD     =      1 
    LKVTH0WE   = -6e-10 
    LK2WE      =      0 
    LKU0WE     =      0 
    WKVTH0WE   =  3e-10 
    WK2WE      =      0 
    WKU0WE     = -1e-10 
    PKVTH0WE   =  1e-16 
    PK2WE      =      0 
    PKU0WE     = -8e-17 
 

 
Model Name: nod33ll_ckt  

 BSIM4 Model (Level 54)

    MOBMOD = 0
    BINUNIT = 2
    PARAMCHK = 1
    CAPMOD = 2
    DIOMOD = 2
    RDSMOD = 1
    TRNQSMOD = 0
    ACNQSMOD = 0
    RBODYMOD = 0
    RGATEMOD = 0
    PERMOD = 1
    GEOMOD = 0
    RGEOMOD = 1
    FNOIMOD = 1
    TNOIMOD = 0
    IGCMOD = 0
    IGBMOD = 0
    STIMOD = 1
    VBFWDMOD = 0
    VERSION =    4.5 
    TOXREF = 5.63e-09 
    TOXE = 5.77e-09 
    TOXP = 5.874e-09 
    TOXM = 5.63e-09 
    DTOX = -1.036e-10 
    EPSROX =    3.9 
    CDSC =  5e-05 
    CDSCB = 2.002e-05 
    CDSCD =      0 
    CIT = 0.0007521 
    NFACTOR =  1.414 
    XJ = 1.42e-07 
    VSAT = 9.4e+04 
    A0 =      1 
    AGS = 0.3474 
    A1 =      0 
    A2 =      1 
    AT = 1.38e+04 
    KETA = -0.003203 
    NSUB =  6e+16 
    NDEP = 1.3e+17 
    NSD =  1e+20 
    NGATE = 2.27e+22 
    GAMMA1 =      0 
    GAMMA2 =      0 
    VBX =      0 
    VBM =     -3 
    XT = 1.55e-07 
    K1 = 0.6381 
    KT1 = -0.173 
    KT1L = 3.417e-09 
    KT2 = -0.03838 
    K2 = 0.00301 
    K3 = -2.907 
    K3B =      0 
    LPE0 = 5.562e-08 
    LPEB =      0 
    DVTP0 =      0 
    DVTP1 =      0 
    W0 = -9.093e-08 
    DVT0 = 0.6583 
    DVT1 = 0.1013 
    DVT2 =      0 
    DVT0W = 0.5231 
    DVT1W = 1.18e+06 
    DVT2W =  1.064 
    DROUT =   0.56 
    DSUB =    0.7 
    VTH0 = 0.6275 
    EU =   1.67 
    UA = -9.715e-10 
    UA1 = 2.558e-09 
    UB = 2.378e-18 
    UB1 = -2.418e-18 
    UC = 1.209e-10 
    UC1 = -1e-12 
    U0 = 0.03266 
    UTE = -0.9763 
    VOFF = -0.1843 
    VOFFL = 9.667e-10 
    MINV = -0.6978 
    FPROUT =      0 
    PDITS =      0 
    PDITSD =      0 
    PDITSL =      0 
    DELTA = 0.003263 
    RDSW =    200 
    RDSWMIN =      0 
    RDWMIN =      0 
    RSWMIN =      0 
    RDW =  162.8 
    RSW =  162.8 
    PRWG =      0 
    PRWB =  0.028 
    PRT =      0 
    ETA0 =  0.118 
    ETAB = -0.1213 
    PCLM =  0.348 
    PDIBLC1 = 0.02463 
    PDIBLC2 = 0.0001766 
    PDIBLCB =  0.189 
    PSCBE1 = 4.24e+08 
    PSCBE2 = 3.491e-08 
    PVAG =      1 
    WR =      1 
    DWG = 8.451e-09 
    DWB = 1.096e-13 
    XW = 9.3e-09 
    XWREF = 9.3e-09 
    XL =  4e-08 
    XLREF =  4e-08 
    B0 = 5.953e-08 
    B1 =      0 
    ALPHA0 = 3.657e-08 
    ALPHA1 =  9.581 
    AGIDL = 9.423e-09 
    BGIDL = 2.636e+09 
    CGIDL =  130.1 
    PHIN =   0.15 
    EGIDL =  0.496 
    AIGC = 0.0136 
    BIGC = 0.00171 
    CIGC =  0.075 
    AIGSD = 0.0136 
    BIGSD = 0.00171 
    CIGSD =  0.075 
    AIGBACC = 0.000949 
    BIGBACC = 0.00171 
    CIGBACC =  0.075 
    AIGBINV = 0.0111 
    BIGBINV = 0.000949 
    CIGBINV =  0.006 
    NIGC =      1 
    NIGBINV =      3 
    NIGBACC =      1 
    NTOX =      1 
    EIGBINV =    1.1 
    PIGCD =      1 
    POXEDGE =      1 
    XRCRG1 =     12 
    TNOIA =    1.5 
    TNOIB =    3.5 
    NTNOI =      1 
    XRCRG2 =      1 
    BETA0 =  22.91 
    IJTHDFWD =    0.1 
    IJTHSFWD =    0.1 
    IJTHDREV =    0.1 
    IJTHSREV =    0.1 
    XJBVD =      1 
    XJBVS =      1 
    BVD =   9.45 
    BVS =   9.45 
    VFB =     -1 
    GBMIN =  1e-12 
    RBDB =     50 
    RBPB =     50 
    RBSB =     50 
    RBPS =     50 
    RBPD =     50 
    CGSL = 3.515e-10 
    CGDL = 3.515e-10 
    CKAPPAS =    0.6 
    CKAPPAD =    0.6 
    CF = 5.607e-11 
    CLC =  1e-07 
    CLE =    0.6 
    DWC = -6.5e-08 
    DLC = 8.665e-08 
    DLCIG =      0 
    DWJ =      0 
    VFBCV =     -1 
    ACDE = 0.2864 
    MOIN =  5.099 
    NOFF =  1.954 
    VOFFCV = -0.1431 
    DMCG = 9.9e-08 
    DMCI = 1.62e-07 
    DMDG =      0 
    DMCGT =      0 
    XGW =      0 
    XGL =      0 
    RSHG =    0.1 
    NGCON =      1 
    TCJ = 0.0008075 
    TPB = 0.001579 
    TCJSW = 0.0003398 
    TPBSW = 0.0006488 
    TCJSWG = 0.0005936 
    TPBSWG = 0.0003669 
    SK0 =      0 
    SK1 =      0 
    SK2 =      0 
    SL =  2e-06 
    SW =  2e-06 
    K =      0 
    LCIT = -5.294e-11 
    LVSAT = -0.008723 
    LKT1 = 1.1e-09 
    LKT2 =  4e-09 
    LK2 = -6.36e-09 
    LVTH0 = 5.753e-09 
    LUA = 5.684e-16 
    LUA1 = 5.971e-16 
    LUB = -1.843e-27 
    LUB1 = -5.981e-25 
    LUC = 1.868e-17 
    LUC1 = -2e-17 
    LU0 = 6.35e-09 
    LUTE = -3.976e-08 
    LDELTA = 1.069e-08 
    LPCLM = 6.797e-08 
    LALPHA1 = 7.643e-07 
    LBETA0 = 2.298e-08 
    LAGIDL = 3.57e-15 
    LCGIDL = 1.53e-05 
    LNOFF = 1.3e-07 
    LVOFFCV = -1.515e-08 
    WVSAT = -0.01913 
    WAGS = 4.368e-09 
    WKT1 = -2e-09 
    WVTH0 = 4.311e-09 
    WUA1 = -1.82e-16 
    WUB = -2.145e-25 
    WUB1 = -2e-26 
    WUC = -2.829e-17 
    WU0 = -3.692e-09 
    WUTE = -3.645e-08 
    WALPHA1 = 3.099e-07 
    WAGIDL = 2.905e-14 
    PCIT = -2.632e-18 
    PVSAT = 3.03e-09 
    PAT = -5.735e-11 
    PAGS = 2.156e-13 
    PKT1 = -5.122e-16 
    PK2 = 2.241e-15 
    PK3 = 2.24e-13 
    PPE0 = 5.024e-21 
    PDVT0 = -1.376e-14 
    PVTH0 = -1.177e-14 
    PUA = 4.702e-23 
    PUA1 = -7.425e-24 
    PUB = -2.178e-31 
    PUB1 = 2.525e-31 
    PUC = -1.091e-23 
    PUC1 =  1e-23 
    PU0 = -2.383e-15 
    PUTE = 2.392e-14 
    PETA0 = -3.61e-15 
    PPCLM = 2.4e-14 
    PBETA0 = -5.44e-14 
    PAGIDL = 1.367e-20 
    TNOM =  298.1 
    CGSO = 1.425e-12 
    CGDO = 1.425e-12 
    CGBO =      0 
    XPART =      1 
    RSH =   13.2 
    JSS = 2.308e-07 
    JSWS = 1.013e-13 
    JSWGS = 5.6e-14 
    PBS = 0.5832 
    MJS = 0.2363 
    PBSWS = 0.3922 
    MJSWS = 0.2203 
    CJS = 0.001388 
    CJSWS = 8.451e-11 
    NJS = 0.9807 
    PBSWGS =  0.976 
    MJSWGS =    0.6 
    CJSWGS = 1.434e-10 
    XTIS =      3 
    JSD = 2.308e-07 
    JSWD = 1.013e-13 
    JSWGD = 5.6e-14 
    PBD = 0.5832 
    MJD = 0.2363 
    PBSWD = 0.3922 
    MJSWD = 0.2203 
    CJD = 0.001388 
    CJSWD = 8.451e-11 
    NJD = 0.9807 
    PBSWGD =  0.976 
    MJSWGD =    0.6 
    CJSWGD = 1.434e-10 
    XTID =      3 
    LMLT =      1 
    WMLT =      1 
[...]
    WTVFBSDOFF =      0 
    PUD        =      0 
    PUD1       =      0 
    PUP        =      0 
    PLP        =      0 
    PTVOFF     =      0 
    PTVFBSDOFF =      0 
    WEB        =     10 
    WEC        =      0 
    KVTH0WE    = -0.008 
    K2WE       =      0 
    KU0WE      = -0.004 
    SCREF      =  1e-06 
    WPEMOD     =      1 
    LKVTH0WE   = -6e-10 
    LK2WE      =      0 
    LKU0WE     =      0 
    WKVTH0WE   =  3e-10 
    WK2WE      =      0 
    WKU0WE     = -1e-10 
    PKVTH0WE   =  1e-16 
    PK2WE      =      0 
    PKU0WE     = -8e-17 
 

  **info** (/export/home/wllv/shzhang/Multi-fidelity/code/NAR_BO/test_bench/pump_charge/circuit/tmp/worker.5/netlist:739) DC voltage reset to initial transient source value              in source        0:vdn                 new dc=  0.0000D+00
  **warning** (/export/home/wllv/shzhang/Multi-fidelity/code/NAR_BO/test_bench/pump_charge/circuit/tmp/worker.5/netlist:737) Capacitance of    1.000E+09 for c0 is too high. Please verify capacitance value.
 
      
 **info** set option symb=1 internally to help for convergence.
 *****************************************************************
 ******  option summary
 ******
 runlvl  = 3         bypass  = 2         

 **info** dc convergence failure, 
 resetting dcon option to 1 and retrying

 **info** dc convergence successful
 you can increase the efficiency of the
 operating point calculation by setting dcon= 1
 in the .option statement
1****** HSPICE -- D-2010.03 64-BIT (Feb 23 2010) linux ******                   
 ******  
 * msp generated netlist file

  ******  operating point information tnom=  25.000 temp=  25.000 *****
 ***** operating point status is all       simulation time is     0.     
     node    =voltage       node    =voltage       node    =voltage

 + 0:dn_net  =   0.       0:dnb_net =   0.       0:i10u_net=   1.9385 
 + 0:i5u_net =   1.1599   0:up_net  =   0.       0:upb_net =   0.     
 + 0:vcp_net =   2.2000   0:vdd33_ne=   3.6300   1:nb2     = 879.5795m
 + 1:net0119 = 299.0768m  1:net0124 = 301.1743m  1:net0149 = 879.5795m
 + 1:net0153 = 879.5795m  1:net35   =   3.4347   1:net47   =   3.4338 
 + 1:net58   = 300.7149m  1:net62   = 301.2739m  1:net78   =   0.     
 + 1:net79   =   3.6300   1:net91   =   2.0477   1:net98   =   2.3500 
 + 1:pb1     =   2.6709   1:pb2     =   2.8278   1:quench  =   2.2124 
 + 2:n78     = 965.1642m  2:n79     = 126.6320m  2:net18   =   2.9718 


 ****  voltage sources

 subckt                                                              
 element   0:v0        0:vdn       0:vdnb      0:vupb      0:vup     
  volts       3.6300      0.          0.          0.          0.     
  current   -97.4118u     0.          0.          0.          0.     
  power     353.6047u     0.          0.          0.          0.     

 subckt    xi0         xi0       
 element   1:vlower    1:vupper  
  volts       0.          0.     
  current    40.0151u    40.1079u
  power       0.          0.     

     total voltage source power dissipation=  353.6047u       watts



 ***** current sources

 subckt                          
 element   0:i10       0:i5      
  volts       1.6915      2.4701 
  current    10.0000u     5.0000u
  power     -16.9147u   -12.3503u


     total current source power dissipation= -29.2650u       watts


 **** mosfets


 subckt    xi0.xnm31   xi0.xnm30   xi0.xpm29   xi0.xpm22   xi0.xpm11 
 element   3:m1        4:m1        5:m1        6:m1        7:m1      
 model     3:nod33ll_  3:nod33ll_  5:pod33ll_  5:pod33ll_  7:pod33ll_
 region        Cutoff      Cutoff      Cutoff      Cutoff    Saturati
  id        102.7793f   101.9362f    -5.5030f    -5.4494f   -10.0206u
  ibs      -4.993e-24  -4.952e-24   1.584e-25   1.571e-25   607.2139a
  ibd        -1.1599p  -879.5799f   989.1950f   823.9308f   392.9050f
  vgs         0.          0.          0.          0.       -802.2323m
  vds         1.1599    879.5795m  -959.1478m  -802.2323m  -195.3218m
  vbs         0.          0.          0.          0.          0.     
  vth       659.7900m   659.7900m  -684.3400m  -684.3428m  -689.2750m
  vdsat      40.2225m    40.2225m   -48.8498m   -48.8498m  -173.3307m
  vod      -659.7900m  -659.7900m   684.3400m   684.3428m  -112.9574m
  beta      831.3347u   831.3347u   789.8436u   789.8430u   974.1421u
  gam eff   638.0600m   638.0600m   600.0000m   600.0000m   600.0000m
  gm          2.9266p     2.9026p   172.0652f   170.3901f   113.3370u
  gds         2.7196f     3.3551f   333.0092a   350.5599a     7.2129u
  gmb         1.0785p     1.0696p    54.3249f    53.7959f    30.3944u
  cdtot       1.5953f     1.7096f     4.3596f     4.5560f    10.9095f
  cgtot       6.2115f     6.2710f    13.9439f    14.0467f    21.3028f
  cstot       2.6390f     2.6390f     6.8235f     6.8235f    28.7538f
  cbtot       6.5943f     6.6491f    14.7669f    14.8606f    21.8690f
  cgs         1.2966f     1.2966f     3.3717f     3.3717f    15.0918f
  cgd       631.7424a   691.2440a     1.8138f     1.9166f     4.1901f



 subckt    xi0.xpm12   xi0.xpm8    xi0.xpm10   xi0.xpm3    xi0.xpm1  
 element   8:m1        9:m1       10:m1       11:m1       12:m1      
 model     8:pod33ll_  9:pod33ll_ 10:pod33ll_ 11:pod33ll_ 11:pod33ll_
 region      Saturati    Saturati    Saturati      Linear      Linear
  id        -40.1079u   -40.1079u   -10.0206u   -19.1855u   -20.8300u
  ibs         2.4303f     1.6278p   405.0799f   155.9410f   143.9740f
  ibd         1.5789p    11.2609p     1.7066p   297.0294f   296.5387f
  vgs      -802.2323m  -762.9241m  -763.8260m    -2.2000     -2.2124 
  vds      -196.2237m    -1.0838   -606.9105m  -152.2565m  -164.6940m
  vbs         0.        196.2237m   195.3218m   150.0043m   137.5668m
  vth      -689.2749m  -730.2011m  -729.9872m  -726.6308m  -723.9684m
  vdsat    -173.3306m  -103.0401m  -103.7032m    -1.3426     -1.3538 
  vod      -112.9575m   -32.7230m   -33.8388m    -1.4734     -1.4885 
  beta        3.8966m    12.4352m     3.1087m    99.7458u    99.6022u
  gam eff   600.0000m   600.0000m   600.0000m   600.0000m   600.0000m
  gm        454.0246u   657.6810u   163.9862u    10.6692u    11.4858u
  gds        28.2673u     1.4027u   465.8411n   127.8419u   127.7196u
  gmb       121.7567u   159.7248u    39.8432u     3.8510u     4.1895u
  cdtot      43.5473f    79.7377f    26.0152f     2.8902f     2.8816f
  cgtot      85.1830f   497.4523f   129.7959f     2.6117f     2.6116f
  cstot     102.8300f   500.5900f   127.5360f     2.7957f     2.7977f
  cbtot      75.2833f   227.6379f    59.8963f     1.7605f     1.7664f
  cgs        60.3714f   377.0427f    94.6295f     1.3034f     1.3074f
  cgd        16.7207f    47.1118f    16.9161f     1.2593f     1.2555f



 subckt    xi0.xpm2    xi0.xpm4    xi0.xnm5    xi0.xnm6    xi0.xnm7  
 element  13:m1       14:m1       15:m1       16:m1       17:m1      
 model    11:pod33ll_ 11:pod33ll_ 15:nod33ll_ 15:nod33ll_ 15:nod33ll_
 region        Linear      Linear      Cutoff      Cutoff      Cutoff
  id        -19.2313u   -20.8765u     0.          0.          0.     
  ibs         5.7342f     6.2247f    -2.0477p    -2.2000p    -2.0477p
  ibd       132.0258f   143.9922f    -2.2000p    -2.3500p    -2.2124p
  vgs        -2.3500     -2.3500     -2.0477     -2.2000     -2.0477 
  vds      -137.5668m  -150.0043m   152.2565m   150.0043m   164.6940m
  vbs         0.          0.         -2.0477     -2.2000     -2.0477 
  vth      -691.7183m  -691.8320m     1.1370      1.1653      1.1370 
  vdsat      -1.4833     -1.4828     44.0900m    44.2759m    44.0900m
  vod        -1.6583     -1.6582     -3.1848     -3.3653     -3.1848 
  beta       97.9799u    97.9856u   176.4460u   176.1339u   176.4460u
  gam eff   600.0000m   600.0000m   638.0600m   638.0600m   638.0600m
  gm          9.0119u     9.8348u     0.          0.          0.     
  gds       144.8705u   143.4548u     0.          0.          0.     
  gmb         3.8605u     4.2003u     0.          0.          0.     
  cdtot       2.9489f     2.9376f   756.6168a   743.8927a   755.5227a
  cgtot       2.6188f     2.6183f     4.9897f     4.9795f     4.9893f
  cstot       2.8659f     2.8631f   770.6405a   756.6168a   770.6405a
  cbtot       1.8739f     1.8711f     5.5005f     5.4841f     5.4998f
  cgs         1.3034f     1.3066f   257.3092a   251.8445a   257.3092a
  cgd         1.2736f     1.2697f   251.2474a   246.4160a   250.8287a



 subckt    xi0.xnm9    xi0.xnm14   xi0.xnm18   xi0.xnm21   xi0.xnm23 
 element  18:m1       19:m1       20:m1       21:m1       22:m1      
 model    15:nod33ll_ 19:nod33ll_ 20:nod33ll_ 21:nod33ll_ 19:nod33ll_
 region        Cutoff    Saturati    Saturati    Saturati    Saturati
  id          0.         10.0050u    40.0151u     5.0024u    10.0000u
  ibs        -2.2124p  -603.1414f    -2.4081p  -301.4712f  -598.7470f
  ibd        -2.3500p    -5.6549p   -16.3795p    -2.6705p    -1.7586p
  vgs        -2.2124    858.6577m   859.2167m   858.7573m   860.8548m
  vds       137.5668m     2.5265      1.7470      2.3697    580.5027m
  vbs        -2.2124   -301.2739m  -300.7149m  -301.1743m  -299.0768m
  vth         1.1676    745.4549m   745.2936m   745.4262m   744.8210m
  vdsat      44.2906m   155.5624m   155.9816m   155.6370m   157.2127m
  vod        -3.3801    113.2029m   113.9231m   113.3311m   116.0338m
  beta      176.1094u   838.7982u     3.3550m   419.3958u   838.6513u
  gam eff   638.0600m   638.0600m   638.0600m   638.0600m   638.0600m
  gm          0.         88.7004u   354.1920u    44.3375u    87.9413u
  gds         0.         72.0781n   393.6948n    37.9015n   321.4108n
  gmb         0.         25.4684u   101.7082u    12.7307u    25.2641u
  cdtot     743.8927a     1.9156f     8.8724f     1.2674f     3.7229f
  cgtot       4.9791f    32.2970f   130.0785f    16.1642f    33.7973f
  cstot     755.5227a    36.2611f   142.5348f    18.1319f    36.3026f
  cbtot       5.4834f    12.6797f    48.5255f     6.6350f    13.0225f
  cgs       251.4227a    29.0496f   116.2629f    14.5262f    29.1328f
  cgd       246.4160a   938.8374a     4.5961f   484.0757a     2.3802f



 subckt    xi0.xnm15   xi0.xnm17   xi0.xnm20   xi0.xnm24   xi0.xnm33 
 element  23:m1       24:m1       25:m1       26:m1       27:m1      
 model    23:nod33ll_ 24:nod33ll_ 25:nod33ll_ 23:nod33ll_ 27:nod33ll_
 region      Saturati    Saturati    Saturati    Saturati      Linear
  id         10.0050u    40.0151u     5.0024u    10.0000u  -119.5249f
  ibs        -1.2414f    -4.9649f  -620.6846a    -1.2408f  -879.5797f
  ibd      -601.2965f    -2.4007p  -300.5490f  -596.9031f  -879.5797f
  vgs       879.5795m   879.5795m   879.5795m   879.5795m     1.0590 
  vds       301.2739m   300.7149m   301.1743m   299.0768m    -3.7064n
  vbs         0.          0.          0.          0.       -879.5795m
  vth       644.6045m   644.6045m   644.6045m   644.6044m   891.3218m
  vdsat     226.6985m   226.6985m   226.6985m   226.6987m   195.2951m
  vod       234.9750m   234.9750m   234.9750m   234.9751m   167.6317m
  beta      357.2326u     1.4289m   178.6163u   357.2326u   179.3198u
  gam eff   638.0600m   638.0600m   638.0600m   638.0600m   638.0600m
  gm         62.9574u   251.7531u    31.4770u    62.8811u   531.4337f
  gds         2.2667u     9.1428u     1.1350u     2.3428u    32.4216u
  gmb        20.3450u    81.3564u    10.1720u    20.3215u   131.5380f
  cdtot       3.8768f    15.5531f     2.3778f     3.9226f    24.5901f
  cgtot      19.5157f    78.0758f     9.7582f    19.5285f    25.6777f
  cstot      22.3384f    86.4267f    11.1692f    22.3403f    26.5460f
  cbtot       9.6306f    35.5970f     5.2537f     9.6339f     6.6715f
  cgs        16.7343f    66.9345f     8.3671f    16.7316f    12.7473f
  cgd         1.7731f     7.1115f   886.9633a     1.7922f    13.0921f



 subckt    xi0.xnm32   xi0.xnm27   xi0.xnm13   xi0.xnm25   xi0.xpm19 
 element  28:m1       29:m1       30:m1       31:m1       32:m1      
 model    27:nod33ll_ 29:nod33ll_ 30:nod33ll_ 31:nod33ll_ 32:pod33ll_
 region        Linear      Linear    Saturati    Saturati    Saturati
  id       -137.1145f     0.          5.0000u    10.0000u    -5.0061u
  ibs      -879.5797f     0.       -902.8004a    -1.7599p   336.7982a
  ibd      -879.5797f     0.         -1.1590p    -3.8763p   971.5819f
  vgs         1.0590    879.5795m     1.1599      1.0590   -959.1478m
  vds        -4.2518n     0.          1.1599      1.0590   -959.1478m
  vbs      -879.5795m     0.          0.       -879.5795m     0.     
  vth       891.3218m   646.0026m   632.9686m   894.0008m  -659.0608m
  vdsat     195.2951m   228.6780m   442.8682m   193.3813m  -284.0896m
  vod       167.6317m   233.5769m   526.9630m   164.9527m  -300.0870m
  beta      179.3198u   683.5968u    42.4485u   543.1485u   116.2651u
  gam eff   638.0600m   638.0600m   638.0600m   638.0600m   600.0000m
  gm        609.6410f     0.         17.6539u    77.8444u    30.2521u
  gds        32.4216u     0.         31.0479n   124.5887n    64.0023n
  gmb       150.8954f     0.          5.4884u    18.6113u     7.9905u
  cdtot      24.5901f   851.1557f   881.4099a     2.8900f     3.6619f
  cgtot      25.6777f   801.7220f    18.4362f    37.2077f    31.7787f
  cstot      26.5460f   815.9830f    21.2237f    39.7227f    35.7945f
  cbtot       6.6715f   271.1235f     6.9808f    11.9245f    14.3288f
  cgs        12.7473f   411.7960f    17.2532f    33.3459f    27.7767f
  cgd        13.0921f   397.2308f   389.1742a     1.8569f     1.4617f



 subckt    xi0.xnm26   xi0.xpm28   xi0.xnm34   xi0.xi40.x  xi0.xi40.x
 element  33:m1       34:m1       35:m1       36:m1       37:m1      
 model    33:nod33ll_ 34:pod33ll_ 35:nod33ll_ 36:pod33ll_ 36:pod33ll_
 region        Linear      Linear      Linear    Saturati    Saturati
  id          0.          0.          0.         -4.1122u    -4.9154u
  ibs         0.          0.          0.        237.3502a   283.7047a
  ibd         0.          0.          0.          3.0762p    12.3552p
  vgs         1.1599   -802.2323m     3.6300   -759.3203m  -771.7578m
  vds         0.          0.          0.       -759.3203m    -2.8451 
  vbs         0.          0.          0.          0.          0.     
  vth       644.6659m  -646.9443m   646.7545m  -659.6210m  -659.6242m
  vdsat     440.7168m  -156.1867m     2.7734   -129.4974m  -138.1616m
  vod       515.2657m  -155.2881m     2.9832    -99.6992m  -112.1336m
  beta      199.3642u    74.9512u   932.8709u   573.6967u   572.9710u
  gam eff   638.0600m   600.0000m   638.0600m   600.0000m   600.0000m
  gm          0.          0.          0.         53.1731u    60.0562u
  gds         0.          0.          0.         67.2359n    39.0820n
  gmb         0.          0.          0.         14.2797u    16.1119u
  cdtot     238.3757f   296.8977f     1.0185p    17.2254f    10.7381f
  cgtot     220.5418f   277.4474f   937.8439f   128.4246f   126.5038f
  cstot     227.3072f   275.7174f   969.3417f   146.1138f   148.8984f
  cbtot      75.8115f    94.7239f   303.4010f    70.4381f    67.7895f
  cgs       115.0580f   134.0014f   504.4019f   105.0751f   107.6150f
  cgd       109.9833f   133.7712f   467.4610f     6.7725f     2.9117f



 subckt    xi0.xi40.x  xi0.xi40.x  xi0.xi40.x  xi0.xi40.x  xi0.xi40.x
 element  38:m1       39:m1       40:m1       41:m1       42:m1      
 model    38:nod33ll_ 39:nod33ll_ 40:pod33ll_ 41:pod33ll_ 42:pod33ll_
 region      Saturati      Linear      Linear    Saturati    Saturati
  id          2.5133u     4.9164u     0.        -18.2474u    -9.0287u
  ibs      -403.8836a  -790.0541a     0.        501.0594a   247.9208a
  ibd        -4.4244p  -759.0006f     0.         30.7946p     3.3727p
  vgs       965.1642m   965.1642m  -802.2323m  -802.2323m  -802.2323m
  vds         2.2124    126.6320m     0.         -2.6648   -658.2422m
  vbs         0.          0.          0.          0.          0.     
  vth       632.7284m   632.7049m  -660.5550m  -650.8327m  -650.8326m
  vdsat     296.3907m   296.4577m  -160.6361m  -157.5725m  -157.5729m
  vod       332.4357m   332.4593m  -141.6774m  -151.3996m  -151.3998m
  beta       49.7233u   149.1691u   482.7665u     1.4719m   735.9550u
  gam eff   638.0600m   638.0600m   600.0000m   600.0000m   600.0000m
  gm         13.1403u    17.0576u     0.        190.7414u    94.5032u
  gds         4.9946n    28.1746u     0.         69.3440n    77.8969n
  gmb         4.1439u     5.6173u     0.         50.4713u    25.0074u
  cdtot       1.3345f   235.6214f   139.9680f    37.9330f    36.4408f
  cgtot      76.6131f   289.3000f   130.5235f     1.3653p   694.2306f
  cstot      90.0857f   290.0732f   129.4950f     1.4989p   749.1341f
  cbtot      29.8246f    98.4452f    49.8380f   524.5373f   268.2231f
  cgs        71.4824f   182.4545f    61.9953f     1.1954p   598.1393f
  cgd       407.1082a   108.6298f    63.8094f    15.6617f    19.1338f



 subckt    xi0.xi40.x
 element  43:m1      
 model    43:pod33ll_
 region      Saturati
  id        -18.2486u
  ibs       559.4910a
  ibd         1.9869p
  vgs      -838.5322m
  vds      -965.1642m
  vbs         0.     
  vth      -676.8065m
  vdsat    -193.6000m
  vod      -161.7257m
  beta        1.1065m
  gam eff   600.0000m
  gm        178.2965u
  gds       517.8746n
  gmb        48.7699u
  cdtot      11.2259f
  cgtot      65.0461f
  cstot      75.5179f
  cbtot      35.7885f
  cgs        52.9329f
  cgd         5.6712f



 ******  
 * msp generated netlist file

  ******  transient analysis tnom=  25.000 temp=  25.000 *****
   up_imin=  3.4004E-05    at=  2.0010E-08
               from=  2.0000E-08    to=  1.0000E-07
   up_iavg=  4.0118E-05  from=  2.0000E-08     to=  1.8000E-07
   up_imax=  4.5833E-05    at=  3.0012E-08
               from=  2.0000E-08    to=  1.0000E-07
   lo_imin=  3.8206E-05    at=  2.0012E-08
               from=  2.0000E-08    to=  1.0000E-07
   lo_iavg=  4.0015E-05  from=  2.0000E-08     to=  1.8000E-07
   lo_imax=  4.0736E-05    at=  6.0010E-08
               from=  2.0000E-08    to=  1.0000E-07

          ***** job concluded
1****** HSPICE -- D-2010.03 64-BIT (Feb 23 2010) linux ******                   
 ******  
 * msp generated netlist file

  ******  job statistics summary tnom=  25.000 temp=  25.000 *****
 
 
 ******  Machine Information  ******
 CPU:
 model name	: Intel(R) Xeon(R) CPU           X5650  @ 2.67GHz
 cpu MHz	: 2668.000
 
 OS:
 Linux version 2.6.32-220.el6.x86_64 (mockbuild@x86-004.build.bos.redhat.com) (g
 cc version 4.4.5 20110214 (Red Hat 4.4.5-6) (GCC) ) #1 SMP Wed Nov 9 08:03:13 E
 ST 2011


  ******  HSPICE Threads Information  ******

  Command Line Threads Count                  :     1
  Available CPU Count                         :    12
  Actual Model Evaluation(Load) Threads Count :     1
  Actual Solver Threads Count                 :     1


  ******  Circuit Statistics  ******
  # nodes       =     110 # elements   =      51
  # resistors   =       0 # capacitors =       1 # inductors   =       0
  # mutual_inds =       0 # vccs       =       0 # vcvs        =       0
  # cccs        =       0 # ccvs       =       0 # volt_srcs   =       7
  # curr_srcs   =       2 # diodes     =       0 # bjts        =       0
  # jfets       =       0 # mosfets    =      41 # U elements  =       0
  # T elements  =       0 # W elements =       0 # B elements  =       0
  # S elements  =       0 # P elements =       0 # va device   =       0


  ******  Runtime Statistics (seconds)  ******

  analysis           time    # points   tot. iter  conv.iter
  op point           0.05           1         276
  transient          0.23      100001        1391         557 rev=        30
  readin             0.10
  errchk             0.05
  setup              0.00
  output             0.00


           total memory used                878 kbytes
           total cpu time            0.43 seconds
           total elapsed time        2.39 seconds
           job started at     08:27:59 10/27/2018
           job ended   at     08:28:01 10/27/2018


 lic: Release hspice token(s) 
