***** HSPICE -- D-2010.03 64-BIT (Feb 23 2010) linux ******
 Input File: /export/home/wllv/shzhang/Multi-fidelity/code/NAR_BO/test_bench/pum
 lic:
 lic: FLEXlm: v8.5b
 lic: USER:   wllv                 HOSTNAME: lnode14
 lic: HOSTID: 00e081d2b6ed         PID:      11270
 lic: Using FLEXlm license file:
 lic: /export/home/wllv/mysoft/hspice/license.dat
 lic: Checkout 1 hspice
 lic: License/Maintenance for hspice will expire on 31-dec-2020/2007.9
 lic: NODE LOCKED license on hostid 00e081d2b6ed
 lic:
 init: begin read circuit files,  cpu clock=  1.00E-01
       option gmindc   =    1.000E-14
       option scale    =    0.900
       option scale    =    0.900
 init: end read circuit files,  cpu clock=  1.00E-01 memory=       178 kb
 init: begin check errors,  cpu clock=  1.00E-01
 init: end check errors,  cpu clock=  1.50E-01 memory=       895 kb
 init: begin setup matrix, pivot=     0 cpu clock=  1.50E-01
       establish matrix -- done,  cpu clock=  1.50E-01 memory=       949 kb
       re-order matrix -- done,  cpu clock=  1.50E-01 memory=       960 kb
 init: end setup matrix,  cpu clock=  1.50E-01 memory=      1006 kb
 dcop: begin dcop,  cpu clock=  1.50E-01
 dcop: end dcop,  cpu clock=  2.00E-01 memory=      1006 kb  tot_iter=     276
 sweep: tran tran0    begin, stop_t=  2.00E-07 #sweeps=**** cpu clock=  2.00E-01
 tran: time= 2.0005E-08 tot_iter=     131 conv_iter=      53 cpu clock= 2.20E-01
 tran: time= 4.0005E-08 tot_iter=     271 conv_iter=     109 cpu clock= 2.50E-01
 tran: time= 6.0000E-08 tot_iter=     409 conv_iter=     164 cpu clock= 2.70E-01
 tran: time= 8.0005E-08 tot_iter=     551 conv_iter=     221 cpu clock= 2.90E-01
 tran: time= 1.0001E-07 tot_iter=     691 conv_iter=     277 cpu clock= 3.20E-01
 tran: time= 1.2000E-07 tot_iter=     831 conv_iter=     333 cpu clock= 3.40E-01
 tran: time= 1.4000E-07 tot_iter=     971 conv_iter=     389 cpu clock= 3.60E-01
 tran: time= 1.6000E-07 tot_iter=    1111 conv_iter=     445 cpu clock= 3.90E-01
 tran: time= 1.8000E-07 tot_iter=    1251 conv_iter=     501 cpu clock= 4.10E-01
 sweep: tran tran0    end,  cpu clock=  4.30E-01 memory=      1009 kb
>info:         ***** hspice job concluded
 lic: Release hspice token(s)
