 ****** HSPICE -- D-2010.03 64-BIT (Feb 23 2010) linux ******                   
  Copyright (C) 2010 Synopsys, Inc. All Rights Reserved.                        
  Unpublished-rights reserved under US copyright laws.
  This program is protected by law and is subject to the 
  terms and conditions of the license agreement from Synopsys.
  Use of this program is your acceptance to be bound by the 
  license agreement. HSPICE is the trademark of Synopsys, Inc.
  Input File: /export/home/wllv/shzhang/Bagging/test_bench/test3/circuit/tmp/wor
 lic:  
 lic: FLEXlm: v8.5b 
 lic: USER:   wllv                 HOSTNAME: console 
 lic: HOSTID: 3440b5b102f4         PID:      19302 
 lic: Using FLEXlm license file: 
 lic: /export/home/wllv/mysoft/hspice/license.dat 
 lic: Checkout 1 hspice 
 lic: License/Maintenance for hspice will expire on 31-dec-2020/2007.9 
 lic: NODE LOCKED license on hostid 3440b5b102f4 
 lic:   
  **warning** (/export/home/svnhome/process/smic.40//hspice/v1p4/l0040ll_v1p4_1r.mdl:1050) Model nod33ll_ckt device geometries will not be checked against the limits set by lmin, lmax, wmin and wmax. To enable this check, add a period(.) to the model name(i.e. enable model selector).
1****** HSPICE -- D-2010.03 64-BIT (Feb 23 2010) linux ******                   
 ******  
 * msp generated netlist file

  ******  circuit name directory
 circuit number to circuit name directory
   number circuitname                     definition         multiplier
        0 main circuit
        1 xi0.                            pll_chargepump     1.00 
        2 xi0.xi40.                       pll_quench_v33     1.00 
        3 xi0.xnm31.                      nod33ll_ckt        1.00 
        4 xi0.xnm30.                      nod33ll_ckt        1.00 
        5 xi0.xpm29.                      pod33ll_ckt        1.00 
        6 xi0.xpm22.                      pod33ll_ckt        1.00 
        7 xi0.xpm11.                      pod33ll_ckt        2.00 
        8 xi0.xpm12.                      pod33ll_ckt        8.00 
        9 xi0.xpm8.                       pod33ll_ckt        8.00 
       10 xi0.xpm10.                      pod33ll_ckt        2.00 
       11 xi0.xpm3.                       pod33ll_ckt        1.00 
       12 xi0.xpm1.                       pod33ll_ckt        1.00 
       13 xi0.xpm2.                       pod33ll_ckt        1.00 
       14 xi0.xpm4.                       pod33ll_ckt        1.00 
       15 xi0.xnm5.                       nod33ll_ckt        1.00 
       16 xi0.xnm6.                       nod33ll_ckt        1.00 
       17 xi0.xnm7.                       nod33ll_ckt        1.00 
       18 xi0.xnm9.                       nod33ll_ckt        1.00 
       19 xi0.xnm14.                      nod33ll_ckt        2.00 
       20 xi0.xnm18.                      nod33ll_ckt        8.00 
       21 xi0.xnm21.                      nod33ll_ckt        1.00 
       22 xi0.xnm23.                      nod33ll_ckt        2.00 
       23 xi0.xnm15.                      nod33ll_ckt        2.00 
       24 xi0.xnm17.                      nod33ll_ckt        8.00 
       25 xi0.xnm20.                      nod33ll_ckt        1.00 
       26 xi0.xnm24.                      nod33ll_ckt        2.00 
       27 xi0.xnm33.                      nod33ll_ckt        1.00 
       28 xi0.xnm32.                      nod33ll_ckt        1.00 
       29 xi0.xnm27.                      nod33ll_ckt        1.00 
       30 xi0.xnm13.                      nod33ll_ckt        1.00 
       31 xi0.xnm25.                      nod33ll_ckt        2.00 
       32 xi0.xpm19.                      pod33ll_ckt        1.00 
       33 xi0.xnm26.                      nod33ll_ckt        1.00 
       34 xi0.xpm28.                      pod33ll_ckt        1.00 
       35 xi0.xnm34.                      nod33ll_ckt        4.00 
       36 xi0.xi40.xpm11.                 pod33ll_ckt        4.00 
       37 xi0.xi40.xpm10.                 pod33ll_ckt        4.00 
       38 xi0.xi40.xnm1.                  nod33ll_ckt        2.00 
       39 xi0.xi40.xnm0.                  nod33ll_ckt        6.00 
       40 xi0.xi40.xpm12.                 pod33ll_ckt        1.00 
       41 xi0.xi40.xpm7.                  pod33ll_ckt       10.00 
       42 xi0.xi40.xpm8.                  pod33ll_ckt        5.00 
       43 xi0.xi40.xpm9.                  pod33ll_ckt        2.00 
1****** HSPICE -- D-2010.03 64-BIT (Feb 23 2010) linux ******                   
 ******  
 * msp generated netlist file

  ******  mos   model parameters tnom=  25.000 temp=  25.000 *****
 
Model Name: nod33ll_ckt  

 BSIM4 Model (Level 54)

    MOBMOD = 0
    BINUNIT = 2
    PARAMCHK = 1
    CAPMOD = 2
    DIOMOD = 2
    RDSMOD = 1
    TRNQSMOD = 0
    ACNQSMOD = 0
    RBODYMOD = 0
    RGATEMOD = 0
    PERMOD = 1
    GEOMOD = 0
    RGEOMOD = 1
    FNOIMOD = 1
    TNOIMOD = 0
    IGCMOD = 0
    IGBMOD = 0
    STIMOD = 1
    VBFWDMOD = 0
    VERSION =    4.5 
    TOXREF = 5.63e-09 
    TOXE = 5.49e-09 
    TOXP = 5.594e-09 
    TOXM = 5.63e-09 
    DTOX = -1.036e-10 
    EPSROX =    3.9 
    CDSC =  5e-05 
    CDSCB = 2.002e-05 
    CDSCD =      0 
    CIT = 0.0007521 
    NFACTOR =  1.414 
    XJ = 1.42e-07 
    VSAT = 9.4e+04 
    A0 =      1 
    AGS = 0.3474 
    A1 =      0 
    A2 =      1 
    AT = 1.38e+04 
    KETA = -0.003203 
    NSUB =  6e+16 
    NDEP = 1.3e+17 
    NSD =  1e+20 
    NGATE = 2.27e+22 
    GAMMA1 =      0 
    GAMMA2 =      0 
    VBX =      0 
    VBM =     -3 
    XT = 1.55e-07 
    K1 = 0.6381 
    KT1 = -0.173 
    KT1L = 3.417e-09 
    KT2 = -0.03838 
    K2 = 0.00301 
    K3 = -2.907 
    K3B =      0 
    LPE0 = 5.562e-08 
    LPEB =      0 
    DVTP0 =      0 
    DVTP1 =      0 
    W0 = -9.093e-08 
    DVT0 = 0.6583 
    DVT1 = 0.1013 
    DVT2 =      0 
    DVT0W = 0.5231 
    DVT1W = 1.18e+06 
    DVT2W =  1.064 
    DROUT =   0.56 
    DSUB =    0.7 
    VTH0 = 0.5725 
    EU =   1.67 
    UA = -9.715e-10 
    UA1 = 2.558e-09 
    UB = 2.378e-18 
    UB1 = -2.418e-18 
    UC = 1.209e-10 
    UC1 = -1e-12 
    U0 = 0.03516 
    UTE = -0.9763 
    VOFF = -0.1843 
    VOFFL = 9.667e-10 
    MINV = -0.6978 
    FPROUT =      0 
    PDITS =      0 
    PDITSD =      0 
    PDITSL =      0 
    DELTA = 0.003263 
    RDSW =    200 
    RDSWMIN =      0 
    RDWMIN =      0 
    RSWMIN =      0 
    RDW =  162.8 
    RSW =  162.8 
    PRWG =      0 
    PRWB =  0.028 
    PRT =      0 
    ETA0 =  0.118 
    ETAB = -0.1213 
    PCLM =  0.348 
    PDIBLC1 = 0.02463 
    PDIBLC2 = 0.0001766 
    PDIBLCB =  0.189 
    PSCBE1 = 4.24e+08 
    PSCBE2 = 3.491e-08 
    PVAG =      1 
    WR =      1 
    DWG = 8.451e-09 
    DWB = 1.096e-13 
    XW = 2.07e-08 
    XWREF = 2.07e-08 
    XL = 3.4e-08 
    XLREF = 3.4e-08 
    B0 = 5.953e-08 
    B1 =      0 
    ALPHA0 = 3.657e-08 
    ALPHA1 =  9.581 
    AGIDL = 9.423e-09 
    BGIDL = 2.636e+09 
    CGIDL =  130.1 
    PHIN =   0.15 
    EGIDL =  0.496 
    AIGC = 0.0136 
    BIGC = 0.00171 
    CIGC =  0.075 
    AIGSD = 0.0136 
    BIGSD = 0.00171 
    CIGSD =  0.075 
    AIGBACC = 0.000949 
    BIGBACC = 0.00171 
    CIGBACC =  0.075 
    AIGBINV = 0.0111 
    BIGBINV = 0.000949 
    CIGBINV =  0.006 
    NIGC =      1 
    NIGBINV =      3 
    NIGBACC =      1 
    NTOX =      1 
    EIGBINV =    1.1 
    PIGCD =      1 
    POXEDGE =      1 
    XRCRG1 =     12 
    TNOIA =    1.5 
    TNOIB =    3.5 
    NTNOI =      1 
    XRCRG2 =      1 
    BETA0 =  22.91 
    IJTHDFWD =    0.1 
    IJTHSFWD =    0.1 
    IJTHDREV =    0.1 
    IJTHSREV =    0.1 
    XJBVD =      1 
    XJBVS =      1 
    BVD =   9.45 
    BVS =   9.45 
    VFB =     -1 
    GBMIN =  1e-12 
    RBDB =     50 
    RBPB =     50 
    RBSB =     50 
    RBPS =     50 
    RBPD =     50 
    CGSL = 3.885e-10 
    CGDL = 3.885e-10 
    CKAPPAS =    0.6 
    CKAPPAD =    0.6 
    CF = 6.197e-11 
    CLC =  1e-07 
    CLE =    0.6 
    DWC = -6.5e-08 
    DLC = 8.665e-08 
    DLCIG =      0 
    DWJ =      0 
    VFBCV =     -1 
    ACDE = 0.2864 
    MOIN =  5.099 
    NOFF =  1.954 
    VOFFCV = -0.1431 
    DMCG = 9.9e-08 
    DMCI = 1.62e-07 
    DMDG =      0 
    DMCGT =      0 
    XGW =      0 
    XGL =      0 
    RSHG =    0.1 
    NGCON =      1 
    TCJ = 0.0008075 
    TPB = 0.001579 
    TCJSW = 0.0003398 
    TPBSW = 0.0006488 
    TCJSWG = 0.0005936 
    TPBSWG = 0.0003669 
    SK0 =      0 
    SK1 =      0 
    SK2 =      0 
    SL =  2e-06 
    SW =  2e-06 
    K =      0 
    LCIT = -5.294e-11 
    LVSAT = -0.008054 
    LKT1 = 1.1e-09 
    LKT2 =  4e-09 
    LK2 = -6.36e-09 
    LVTH0 = 6.748e-10 
    LUA = 5.684e-16 
    LUA1 = 5.971e-16 
    LUB = -1.843e-27 
    LUB1 = -5.981e-25 
    LUC = 1.868e-17 
    LUC1 = -2e-17 
    LU0 = 1.008e-08 
    LUTE = -3.976e-08 
    LDELTA = 1.069e-08 
    LPCLM = 6.797e-08 
    LALPHA1 = 7.643e-07 
    LBETA0 = 2.298e-08 
    LAGIDL = 3.57e-15 
    LCGIDL = 1.53e-05 
    LNOFF = 1.3e-07 
    LVOFFCV = -1.515e-08 
    WVSAT = -0.01913 
    WAGS = 4.368e-09 
    WKT1 = -2e-09 
    WVTH0 = -4.609e-09 
    WUA1 = -1.82e-16 
    WUB = -2.145e-25 
    WUB1 = -2e-26 
    WUC = -2.829e-17 
    WU0 = -3.282e-09 
    WUTE = -3.645e-08 
    WALPHA1 = 3.099e-07 
    WAGIDL = 2.905e-14 
    PCIT = -2.632e-18 
    PVSAT = 3.259e-09 
    PAT = -5.735e-11 
    PAGS = 2.156e-13 
    PKT1 = -5.122e-16 
    PK2 = 2.241e-15 
    PK3 = 2.24e-13 
    PPE0 = 5.024e-21 
    PDVT0 = -1.376e-14 
    PVTH0 = -1.33e-14 
    PUA = 4.702e-23 
    PUA1 = -7.425e-24 
    PUB = -2.178e-31 
    PUB1 = 2.525e-31 
    PUC = -1.091e-23 
    PUC1 =  1e-23 
    PU0 = -2.383e-15 
    PUTE = 2.392e-14 
    PETA0 = -3.61e-15 
    PPCLM = 2.4e-14 
    PBETA0 = -5.44e-14 
    PAGIDL = 1.367e-20 
    TNOM =  298.1 
    CGSO = 1.575e-12 
    CGDO = 1.575e-12 
    CGBO =      0 
    XPART =      1 
    RSH =   13.2 
    JSS = 2.308e-07 
    JSWS = 1.013e-13 
    JSWGS = 5.6e-14 
    PBS = 0.5832 
    MJS = 0.2363 
    PBSWS = 0.3922 
    MJSWS = 0.2203 
    CJS = 0.001256 
    CJSWS = 7.646e-11 
    NJS = 0.9807 
    PBSWGS =  0.976 
    MJSWGS =    0.6 
    CJSWGS = 1.297e-10 
    XTIS =      3 
    JSD = 2.308e-07 
    JSWD = 1.013e-13 
    JSWGD = 5.6e-14 
    PBD = 0.5832 
    MJD = 0.2363 
    PBSWD = 0.3922 
    MJSWD = 0.2203 
    CJD = 0.001256 
    CJSWD = 7.646e-11 
    NJD = 0.9807 
    PBSWGD =  0.976 
    MJSWGD =    0.6 
    CJSWGD = 1.297e-10 
    XTID =      3 
    LMLT =      1 
    WMLT =      1 
    LINT = 3.171e-08 
    LL = 7.773e-15 
    LLC =      0 
    LLN =      1 
    LW = 3.807e-15 
    LWC =      0 
    LWN =      1 
    LWL = 1.323e-22 
    LWLC =      0 
    LMIN = 4.95e-07 
    LMAX = 0.0001 
    WINT = -2.832e-08 
    WL = -1.858e-14 
    WLC =      0 
    WLN =      1 
    WW = -6.716e-15 
    WWC =      0 
    WWN =      1 
    WWL = 2.396e-21 
    WWLC =      0 
    WMIN = 2.88e-07 
    WMAX = 0.0001 
    NOIA = 2.064e+41 
    NOIB = 7.403e+24 
    NOIC = 4.862e+07 
    EM = 3.308e+11 
    EF = 0.9576 
    AF =      1 
    KF =      0 
    TRS =      0 
    TRD =      0 
    TEMPMOD  =      0 
    LAMBDA   =      0 
    VTL      =  2e+05 m/s
    LC       =  5e-09 
    XN       =      3 
    LLAMBDA  =      0 
    LVTL     =      0 
    LXN      =      0 
    WLAMBDA  =      0 
    WVTL     =      0 
    WXN      =      0 
    PLAMBDA  =      0 
    PVTL     =      0 
    PXN      =      0 
    RNOIA    =  0.577 
    RNOIB    = 0.5164 
    SAREF(SA0) = 2.61e-07 m
    SBREF(SB0) = 2.61e-07 m
    WLOD     =      0 m
    KU0      = -5.71e-08 1/m
    KVSAT    =    0.4 
    KVTH0    = 2.48e-09 m
    TKU0     =      0 
    LLODKU0  =      1 
    WLODKU0  =      1 
    LLODVTH  =      1 
    WLODVTH  =      1 
    LKU0     = 1.325e-06 
    WKU0     =  1e-08 
    PKU0     = -5.7e-14 
    LKVTH0   = -1.301e-07 
    WKVTH0   = -1.5e-07 
    PKVTH0   = 6.3e-14 
    STK2     =      0 
    LODK2    =      1 
    STETA0   = -3.339e-09 
    LODETA0  =      1 
    LXRCRG1  =      0 
    WXRCRG1  =      0 
    PXRCRG1  =      0 
    LXRCRG2  =      0 
    WXRCRG2  =      0 
    PXRCRG2  =      0 
 

    *** UCB's BSIM4.4.0 new diode model is activated. ***
    *** UCB's Diode Model Parameters ***

    JTSS         =      0 
    JTSSWS       =      0 
    JTSSWGS      = 1.2e-18 
    JTSD         =      0 
    JTSSWD       =      0 
    JTSSWGD      = 1.2e-18 
    NJTS         =     20 
    NJTSSW       =     20 
    NJTSSWG      =     20 
    XTSS         =   0.02 
    XTSSWS       =   0.02 
    XTSSWGS      =   0.02 
    XTSD         =   0.02 
    XTSSWD       =   0.02 
    XTSSWGD      =   0.02 
    TNJTS        =      0 
    TNJTSSW      =      0 
    TNJTSSWG     =      0 
    VFBSDOFF     =      0 
    LVFBSDOFF    =      0 
    WVFBSDOFF    =      0 
    PVFBSDOFF    =      0 
    LINTNOI      = -3.905e-08 
    VTSS         =     10 
    VTSD         =     10 
    VTSSWS       =     10 
    VTSSWD       =     10 
    VTSSWGS      =     10 
    VTSSWGD      =     10 
    TTDIOMOD     =      1 
 

    *** UCB's BSIM4.5.0 new model is activated. ***
    UD         =  1e+14 
    UD1        =      0 
    UP         =      0 
    LP         =  1e-08 
    TVOFF      =  0.003 
    TVFBSDOFF  =      0 
    RBPS0      =     50 
    RBPSL      =      0 
    RBPSW      =      0 
    RBPSNF     =      0 
    RBPD0      =     50 
    RBPDL      =      0 
    RBPDW      =      0 
    RBPDNF     =      0 
    RBPBX0     =    100 
    RBPBXL     =      0 
    RBPBXW     =      0 
    RBPBXNF    =      0 
    RBPBY0     =    100 
    RBPBYL     =      0 
    RBPBYW     =      0 
    RBPBYNF    =      0 
    RBSBX0     =    100 
    RBSBY0     =    100 
    RBDBX0     =    100 
    RBDBY0     =    100 
    RBSDBXL    =      0 
    RBSDBXW    =      0 
    RBSDBXNF   =      0 
    RBSDBYL    =      0 
    RBSDBYW    =      0 
    RBSDBYNF   =      0 
    LUD        =      0 
    LUD1       =      0 
    LUP        =      0 
    LLP        =      0 
    LTVOFF     = -4.4e-11 
    LTVFBSDOFF =      0 
    WUD        =      0 
    WUD1       =      0 
    WUP        =      0 
    WLP        =      0 
    WTVOFF     =      0 
    WTVFBSDOFF =      0 
    PUD        =      0 
    PUD1       =      0 
    PUP        =      0 
    PLP        =      0 
    PTVOFF     =      0 
    PTVFBSDOFF =      0 
    WEB        =   -460 
    WEC        =   -300 
    KVTH0WE    = 0.01789 
    K2WE       =      0 
    KU0WE      = -0.01846 
    SCREF      =  1e-06 
    WPEMOD     =      1 
    LKVTH0WE   = 1.579e-09 
    LK2WE      =      0 
    LKU0WE     =      0 
    WKVTH0WE   =  1e-09 
    WK2WE      =      0 
    WKU0WE     = 4.324e-09 
    PKVTH0WE   = -4.409e-16 
    PK2WE      =      0 
    PKU0WE     = -6.528e-16 
 

 
Model Name: pod33ll_ckt  

 BSIM4 Model (Level 54)

    MOBMOD = 0
    BINUNIT = 2
    PARAMCHK = 1
    CAPMOD = 2
    DIOMOD = 2
    RDSMOD = 1
    TRNQSMOD = 0
    ACNQSMOD = 0
    RBODYMOD = 0
    RGATEMOD = 0
    PERMOD = 1
    GEOMOD = 0
    RGEOMOD = 1
    FNOIMOD = 1
    TNOIMOD = 0
    IGCMOD = 0
    IGBMOD = 0
    STIMOD = 1
    VBFWDMOD = 0
    VERSION =    4.5 
    TOXREF = 6.02e-09 
    TOXE = 5.921e-09 
    TOXP = 5.781e-09 
    TOXM = 5.921e-09 
    DTOX = 1.4e-10 
    EPSROX =    3.9 
    CDSC =      0 
    CDSCB =      0 
    CDSCD =      0 
    CIT = 0.00063 
    NFACTOR =   1.05 
    XJ = 1.37e-07 
    VSAT = 8.5e+04 
    A0 =  1.495 
    AGS =  0.275 
    A1 =      0 
    A2 =      1 
    AT =  6e+04 
    KETA = -0.002248 
    NSUB =  6e+16 
    NDEP =  1e+17 
    NSD =  1e+20 
    NGATE =  1e+21 
    GAMMA1 =      0 
    GAMMA2 =      0 
    VBX =      0 
    VBM =     -3 
    XT = 1.55e-07 
    K1 =    0.6 
    KT1 = -0.1793 
    KT1L =  2e-08 
    KT2 = -0.02903 
    K2 =  -0.05 
    K3 =      0 
    K3B =    0.7 
    LPE0 =  7e-08 
    LPEB =      0 
    DVTP0 = -1e-07 
    DVTP1 =      0 
    W0 =      0 
    DVT0 =      7 
    DVT1 =   0.36 
    DVT2 =   0.01 
    DVT0W =      0 
    DVT1W =      0 
    DVT2W =      0 
    DROUT =   0.56 
    DSUB =   0.56 
    VTH0 = -0.554 
    EU =   1.67 
    UA = 2.579e-10 
    UA1 = 1.768e-09 
    UB = 1.231e-18 
    UB1 = -3.029e-18 
    UC = -2e-11 
    UC1 = 4.849e-12 
    U0 = 0.01146 
    UTE =     -1 
    VOFF = -0.132 
    VOFFL = -1.4e-08 
    MINV =  -0.08 
    FPROUT =      0 
    PDITS =      0 
    PDITSD =      0 
    PDITSL =      0 
    DELTA =  0.004 
    RDSW =    477 
    RDSWMIN =      0 
    RDWMIN =      0 
    RSWMIN =      0 
    RDW =    270 
    RSW =    270 
    PRWG =      0 
    PRWB =      0 
    PRT =      0 
    ETA0 =   0.08 
    ETAB = -0.152 
    PCLM =  0.362 
    PDIBLC1 =      0 
    PDIBLC2 = 3.06e-05 
    PDIBLCB =      0 
    PSCBE1 = 4.24e+09 
    PSCBE2 =  1e-08 
    PVAG =      0 
    WR =      1 
    DWG =      0 
    DWB =      0 
    XW = 1.77e-08 
    XWREF = 1.77e-08 
    XL = 6.4e-09 
    XLREF = 6.4e-09 
    B0 =      0 
    B1 =      0 
    ALPHA0 = -5.285e-06 
    ALPHA1 =   15.9 
    AGIDL =  5e-10 
    BGIDL =  2e+09 
    CGIDL =    0.5 
    PHIN = 0.04597 
    EGIDL =   0.37 
    AIGC = 0.0098 
    BIGC = 0.000759 
    CIGC =   0.03 
    AIGSD = 0.0098 
    BIGSD = 0.000759 
    CIGSD =   0.03 
    AIGBACC = 0.000949 
    BIGBACC = 0.00171 
    CIGBACC =  0.075 
    AIGBINV = 0.0111 
    BIGBINV = 0.000949 
    CIGBINV =  0.006 
    NIGC =      1 
    NIGBINV =      3 
    NIGBACC =      1 
    NTOX =      1 
    EIGBINV =    1.1 
    PIGCD =      1 
    POXEDGE =      1 
    XRCRG1 =     12 
    TNOIA =    1.5 
    TNOIB =    3.5 
    NTNOI =      1 
    XRCRG2 =      1 
    BETA0 =   33.6 
    IJTHDFWD =    0.1 
    IJTHSFWD =    0.1 
    IJTHDREV =    0.1 
    IJTHSREV =    0.1 
    XJBVD =      1 
    XJBVS =      1 
    BVD =   8.55 
    BVS =   8.55 
    VFB =     -1 
    GBMIN =  1e-12 
    RBDB =     50 
    RBPB =     50 
    RBSB =     50 
    RBPS =     50 
    RBPD =     50 
    CGSL = 3.57e-10 
    CGDL = 3.57e-10 
    CKAPPAS =    0.6 
    CKAPPAD =    0.6 
    CF = 6.054e-11 
    CLC =  1e-07 
    CLE =    0.6 
    DWC = -6.5e-08 
    DLC = 7.306e-08 
    DLCIG =  5e-09 
    DWJ =      0 
    VFBCV =     -1 
    ACDE = 0.5037 
    MOIN =      8 
    NOFF =    1.4 
    VOFFCV =  -0.02 
    DMCG = 9.9e-08 
    DMCI = 1.62e-07 
    DMDG =      0 
    DMCGT =      0 
    XGW =      0 
    XGL =      0 
    RSHG =    0.1 
    NGCON =      1 
    TCJ = 0.0008479 
    TPB = 0.001659 
    TCJSW = 0.000503 
    TPBSW = 0.002829 
    TCJSWG = 0.0002 
    TPBSWG = 0.0003037 
    SK0 =      0 
    SK1 =      0 
    SK2 =      0 
    SL =  2e-06 
    SW =  2e-06 
    K =      0 
    LCIT = -2e-10 
    LVSAT = 0.008595 
    LAT =  -0.07 
    LA0 = -9e-07 
    LAGS = 2.5e-07 
    LKETA = -3.24e-09 
    LKT2 = 1.227e-09 
    LVTH0 = 4.2e-09 
    LUA = 1.616e-16 
    LUA1 = 3.45e-17 
    LUB = -1e-25 
    LUB1 =  1e-25 
    LUC = 4.705e-18 
    LU0 = 1.415e-09 
    LDELTA = 3.23e-09 
    LETA0 = 4.292e-08 
    LETAB = 1.7e-08 
    LPCLM = 1.3e-07 
    LPDIBLC2 =  6e-10 
    LALPHA0 = 8.338e-13 
    LBETA0 = -1.837e-06 
    LAGIDL = 5.1e-16 
    LNOFF =  6e-07 
    LVOFFCV = -4e-08 
    WAT =  0.023 
    WA0 =  5e-09 
    WKETA = 3.031e-09 
    WKT1 = 1.029e-08 
    WVTH0 =  2e-09 
    WUA = -6.12e-17 
    WUB = 1.996e-26 
    WUB1 = 1.94e-25 
    WU0 =  2e-10 
    WPCLM = -1e-08 
    WAGIDL =  6e-16 
    PVSAT = -2.029e-09 
    PAT =  5e-09 
    PA0 = 9.04e-14 
    PKT1 =  8e-15 
    PK2 = -1e-16 
    PDVT1 = 5.016e-15 
    PVTH0 =  7e-15 
    PUA = 4.596e-23 
    PUA1 = 3.438e-24 
    PUB = -3.305e-32 
    PUB1 =  8e-33 
    PUC = -1.25e-24 
    PUC1 = 2.2e-24 
    PU0 =  2e-16 
    PVOFF = -2.128e-15 
    PETA0 = 1.08e-14 
    PAGIDL = 4.4e-21 
    TNOM =  298.1 
    CGSO = 1.05e-11 
    CGDO = 1.05e-11 
    CGBO =      0 
    XPART =      1 
    RSH =     14 
    JSS = 1.593e-07 
    JSWS = 1.013e-13 
    JSWGS = 1.53e-12 
    PBS =  0.729 
    MJS = 0.3168 
    PBSWS =   1.03 
    MJSWS = 0.1784 
    CJS = 0.001171 
    CJSWS = 5.503e-11 
    NJS = 0.9839 
    PBSWGS = 0.8317 
    MJSWGS =  0.465 
    CJSWGS = 1.536e-10 
    XTIS =      3 
    JSD = 1.593e-07 
    JSWD = 1.013e-13 
    JSWGD = 1.53e-12 
    PBD =  0.729 
    MJD = 0.3168 
    PBSWD =   1.03 
    MJSWD = 0.1784 
    CJD = 0.001171 
    CJSWD = 5.503e-11 
    NJD = 0.9839 
    PBSWGD = 0.8317 
    MJSWGD =  0.465 
    CJSWGD = 1.536e-10 
    XTID =      3 
    LMLT =      1 
    WMLT =      1 
    LINT =  4e-09 
    LL = -5e-15 
    LLC =      0 
    LLN =    0.9 
    LW =      0 
    LWC =      0 
    LWN =      1 
    LWL =      0 
    LWLC =      0 
    LMIN = 3.96e-07 
    LMAX = 0.0001 
    WINT = -2e-08 
    WL = -1.1e-14 
    WLC =      0 
    WLN =   0.98 
    WW =  9e-15 
    WWC =      0 
    WWN =   0.96 
    WWL =      0 
    WWLC =      0 
    WMIN = 2.88e-07 
    WMAX = 0.0001 
    NOIA = 5.223e+41 
    NOIB = 1.399e+26 
    NOIC =  6e+09 
    EM =  2e+09 
    EF =   1.21 
    AF =      1 
    KF =      0 
    TRS =      0 
    TRD =      0 
    TEMPMOD  =      0 
    LAMBDA   =      0 
    VTL      =  2e+05 m/s
    LC       =  5e-09 
    XN       =      3 
    LLAMBDA  =      0 
    LVTL     =      0 
    LXN      =      0 
    WLAMBDA  =      0 
    WVTL     =      0 
    WXN      =      0 
    PLAMBDA  =      0 
    PVTL     =      0 
    PXN      =      0 
    RNOIA    =  0.577 
    RNOIB    = 0.5164 
    SAREF(SA0) = 2.61e-07 m
    SBREF(SB0) = 2.61e-07 m
    WLOD     =      0 m
    KU0      =  3e-09 1/m
    KVSAT    =      1 
    KVTH0    =  4e-09 m
    TKU0     =      0 
    LLODKU0  =      1 
    WLODKU0  =      1 
    LLODVTH  =      1 
    WLODVTH  =      1 
    LKU0     =  2e-06 
    WKU0     =      0 
    PKU0     =      0 
    LKVTH0   =  7e-07 
    WKVTH0   =  3e-07 
    PKVTH0   =  2e-13 
    STK2     =      0 
    LODK2    =      1 
    STETA0   =      0 
    LODETA0  =      1 
    LXRCRG1  =      0 
    WXRCRG1  =      0 
    PXRCRG1  =      0 
    LXRCRG2  =      0 
    WXRCRG2  =      0 
    PXRCRG2  =      0 
 

    *** UCB's BSIM4.4.0 new diode model is activated. ***
    *** UCB's Diode Model Parameters ***

    JTSS         =      0 
    JTSSWS       =      0 
    JTSSWGS      =  9e-09 
    JTSD         =      0 
    JTSSWD       =      0 
    JTSSWGD      =  9e-09 
    NJTS         =     20 
    NJTSSW       =     20 
    NJTSSWG      =     20 
    XTSS         =   0.02 
    XTSSWS       =   0.02 
    XTSSWGS      =   0.02 
    XTSD         =   0.02 
    XTSSWD       =   0.02 
    XTSSWGD      =   0.02 
    TNJTS        =      0 
    TNJTSSW      =      0 
    TNJTSSWG     =      0 
    VFBSDOFF     =      0 
    LVFBSDOFF    =      0 
    WVFBSDOFF    =      0 
    PVFBSDOFF    =      0 
    LINTNOI      = -1.8e-08 
    VTSS         =     10 
    VTSD         =     10 
    VTSSWS       =     10 
    VTSSWD       =     10 
    VTSSWGS      =     10 
    VTSSWGD      =     10 
    TTDIOMOD     =      1 
 

    *** UCB's BSIM4.5.0 new model is activated. ***
    UD         =  1e+14 
    UD1        =      0 
    UP         =      0 
    LP         =  1e-08 
    TVOFF      =  0.005 
    TVFBSDOFF  =      0 
    RBPS0      =     50 
    RBPSL      =      0 
    RBPSW      =      0 
    RBPSNF     =      0 
    RBPD0      =     50 
    RBPDL      =      0 
    RBPDW      =      0 
    RBPDNF     =      0 
    RBPBX0     =    100 
    RBPBXL     =      0 
    RBPBXW     =      0 
    RBPBXNF    =      0 
    RBPBY0     =    100 
    RBPBYL     =      0 
    RBPBYW     =      0 
    RBPBYNF    =      0 
    RBSBX0     =    100 
    RBSBY0     =    100 
    RBDBX0     =    100 
    RBDBY0     =    100 
    RBSDBXL    =      0 
    RBSDBXW    =      0 
    RBSDBXNF   =      0 
    RBSDBYL    =      0 
    RBSDBYW    =      0 
    RBSDBYNF   =      0 
    LUD        =      0 
    LUD1       =      0 
    LUP        =      0 
    LLP        =      0 
    LTVOFF     =      0 
    LTVFBSDOFF =      0 
    WUD        =      0 
    WUD1       =      0 
    WUP        =      0 
    WLP        =      0 
    WTVOFF     = 6.4e-10 
    WTVFBSDOFF =      0 
    PUD        =      0 
    PUD1       =      0 
    PUP        =      0 
    PLP        =      0 
    PTVOFF     =      0 
    PTVFBSDOFF =      0 
    WEB        =     10 
    WEC        =      0 
    KVTH0WE    = -0.008 
    K2WE       =      0 
    KU0WE      = -0.004 
    SCREF      =  1e-06 
    WPEMOD     =      1 
    LKVTH0WE   = -6e-10 
    LK2WE      =      0 
    LKU0WE     =      0 
    WKVTH0WE   =  3e-10 
    WK2WE      =      0 
    WKU0WE     = -1e-10 
    PKVTH0WE   =  1e-16 
    PK2WE      =      0 
    PKU0WE     = -8e-17 
 

 
Model Name: pod33ll_ckt  

 BSIM4 Model (Level 54)

    MOBMOD = 0
    BINUNIT = 2
    PARAMCHK = 1
    CAPMOD = 2
    DIOMOD = 2
    RDSMOD = 1
    TRNQSMOD = 0
    ACNQSMOD = 0
    RBODYMOD = 0
    RGATEMOD = 0
    PERMOD = 1
    GEOMOD = 0
    RGEOMOD = 1
    FNOIMOD = 1
    TNOIMOD = 0
    IGCMOD = 0
    IGBMOD = 0
    STIMOD = 1
    VBFWDMOD = 0
    VERSION =    4.5 
    TOXREF = 6.02e-09 
    TOXE = 5.921e-09 
    TOXP = 5.781e-09 
    TOXM = 5.921e-09 
    DTOX = 1.4e-10 
    EPSROX =    3.9 
    CDSC =      0 
    CDSCB =      0 
    CDSCD =      0 
    CIT = 0.00063 
    NFACTOR =   1.05 
    XJ = 1.37e-07 
    VSAT = 8.5e+04 
    A0 =  1.495 
    AGS =  0.275 
    A1 =      0 
    A2 =      1 
    AT =  6e+04 
    KETA = -0.002248 
    NSUB =  6e+16 
    NDEP =  1e+17 
    NSD =  1e+20 
    NGATE =  1e+21 
    GAMMA1 =      0 
    GAMMA2 =      0 
    VBX =      0 
    VBM =     -3 
    XT = 1.55e-07 
    K1 =    0.6 
    KT1 = -0.1793 
    KT1L =  2e-08 
    KT2 = -0.02903 
    K2 =  -0.05 
    K3 =      0 
    K3B =    0.7 
    LPE0 =  7e-08 
    LPEB =      0 
    DVTP0 = -1e-07 
    DVTP1 =      0 
    W0 =      0 
    DVT0 =      7 
    DVT1 =   0.36 
    DVT2 =   0.01 
    DVT0W =      0 
    DVT1W =      0 
    DVT2W =      0 
    DROUT =   0.56 
    DSUB =   0.56 
    VTH0 = -0.554 
    EU =   1.67 
    UA = 2.579e-10 
    UA1 = 1.768e-09 
    UB = 1.231e-18 
    UB1 = -3.029e-18 
    UC = -2e-11 
    UC1 = 4.849e-12 
    U0 = 0.01146 
    UTE =     -1 
    VOFF = -0.132 
    VOFFL = -1.4e-08 
    MINV =  -0.08 
    FPROUT =      0 
    PDITS =      0 
    PDITSD =      0 
    PDITSL =      0 
    DELTA =  0.004 
    RDSW =    477 
    RDSWMIN =      0 
    RDWMIN =      0 
    RSWMIN =      0 
    RDW =    270 
    RSW =    270 
    PRWG =      0 
    PRWB =      0 
    PRT =      0 
    ETA0 =   0.08 
    ETAB = -0.152 
    PCLM =  0.362 
    PDIBLC1 =      0 
    PDIBLC2 = 3.06e-05 
    PDIBLCB =      0 
    PSCBE1 = 4.24e+09 
    PSCBE2 =  1e-08 
    PVAG =      0 
    WR =      1 
    DWG =      0 
    DWB =      0 
    XW = 1.77e-08 
    XWREF = 1.77e-08 
    XL = 6.4e-09 
    XLREF = 6.4e-09 
    B0 =      0 
    B1 =      0 
    ALPHA0 = -5.285e-06 
    ALPHA1 =   15.9 
    AGIDL =  5e-10 
    BGIDL =  2e+09 
    CGIDL =    0.5 
    PHIN = 0.04597 
    EGIDL =   0.37 
    AIGC = 0.0098 
    BIGC = 0.000759 
    CIGC =   0.03 
    AIGSD = 0.0098 
    BIGSD = 0.000759 
    CIGSD =   0.03 
    AIGBACC = 0.000949 
    BIGBACC = 0.00171 
    CIGBACC =  0.075 
    AIGBINV = 0.0111 
    BIGBINV = 0.000949 
    CIGBINV =  0.006 
    NIGC =      1 
    NIGBINV =      3 
    NIGBACC =      1 
    NTOX =      1 
    EIGBINV =    1.1 
    PIGCD =      1 
    POXEDGE =      1 
    XRCRG1 =     12 
    TNOIA =    1.5 
    TNOIB =    3.5 
    NTNOI =      1 
    XRCRG2 =      1 
    BETA0 =   33.6 
    IJTHDFWD =    0.1 
    IJTHSFWD =    0.1 
    IJTHDREV =    0.1 
    IJTHSREV =    0.1 
    XJBVD =      1 
    XJBVS =      1 
    BVD =   8.55 
    BVS =   8.55 
    VFB =     -1 
    GBMIN =  1e-12 
    RBDB =     50 
    RBPB =     50 
    RBSB =     50 
    RBPS =     50 
    RBPD =     50 
    CGSL = 3.57e-10 
    CGDL = 3.57e-10 
    CKAPPAS =    0.6 
    CKAPPAD =    0.6 
    CF = 6.054e-11 
    CLC =  1e-07 
    CLE =    0.6 
    DWC = -6.5e-08 
    DLC = 7.306e-08 
    DLCIG =  5e-09 
    DWJ =      0 
    VFBCV =     -1 
    ACDE = 0.5037 
    MOIN =      8 
    NOFF =    1.4 
    VOFFCV =  -0.02 
    DMCG = 9.9e-08 
    DMCI = 1.62e-07 
    DMDG =      0 
    DMCGT =      0 
    XGW =      0 
    XGL =      0 
    RSHG =    0.1 
    NGCON =      1 
    TCJ = 0.0008479 
    TPB = 0.001659 
    TCJSW = 0.000503 
    TPBSW = 0.002829 
    TCJSWG = 0.0002 
    TPBSWG = 0.0003037 
    SK0 =      0 
    SK1 =      0 
    SK2 =      0 
    SL =  2e-06 
    SW =  2e-06 
    K =      0 
    LCIT = -2e-10 
    LVSAT = 0.008595 
    LAT =  -0.07 
    LA0 = -9e-07 
    LAGS = 2.5e-07 
    LKETA = -3.24e-09 
    LKT2 = 1.227e-09 
    LVTH0 = 4.2e-09 
    LUA = 1.616e-16 
    LUA1 = 3.45e-17 
    LUB = -1e-25 
    LUB1 =  1e-25 
    LUC = 4.705e-18 
    LU0 = 1.415e-09 
    LDELTA = 3.23e-09 
    LETA0 = 4.292e-08 
    LETAB = 1.7e-08 
    LPCLM = 1.3e-07 
    LPDIBLC2 =  6e-10 
    LALPHA0 = 8.338e-13 
    LBETA0 = -1.837e-06 
    LAGIDL = 5.1e-16 
    LNOFF =  6e-07 
    LVOFFCV = -4e-08 
    WAT =  0.023 
    WA0 =  5e-09 
    WKETA = 3.031e-09 
    WKT1 = 1.029e-08 
    WVTH0 =  2e-09 
    WUA = -6.12e-17 
    WUB = 1.996e-26 
    WUB1 = 1.94e-25 
    WU0 =  2e-10 
    WPCLM = -1e-08 
    WAGIDL =  6e-16 
    PVSAT = -2.029e-09 
    PAT =  5e-09 
    PA0 = 9.04e-14 
    PKT1 =  8e-15 
    PK2 = -1e-16 
    PDVT1 = 5.016e-15 
    PVTH0 =  7e-15 
    PUA = 4.596e-23 
    PUA1 = 3.438e-24 
    PUB = -3.305e-32 
    PUB1 =  8e-33 
    PUC = -1.25e-24 
    PUC1 = 2.2e-24 
    PU0 =  2e-16 
    PVOFF = -2.128e-15 
    PETA0 = 1.08e-14 
    PAGIDL = 4.4e-21 
    TNOM =  298.1 
    CGSO = 1.05e-11 
    CGDO = 1.05e-11 
    CGBO =      0 
    XPART =      1 
    RSH =     14 
    JSS = 1.593e-07 
    JSWS = 1.013e-13 
    JSWGS = 1.53e-12 
    PBS =  0.729 
    MJS = 0.3168 
    PBSWS =   1.03 
    MJSWS = 0.1784 
    CJS = 0.001171 
    CJSWS = 5.503e-11 
    NJS = 0.9839 
    PBSWGS = 0.8317 
    MJSWGS =  0.465 
    CJSWGS = 1.536e-10 
    XTIS =      3 
    JSD = 1.593e-07 
    JSWD = 1.013e-13 
    JSWGD = 1.53e-12 
    PBD =  0.729 
    MJD = 0.3168 
    PBSWD =   1.03 
    MJSWD = 0.1784 
    CJD = 0.001171 
    CJSWD = 5.503e-11 
    NJD = 0.9839 
    PBSWGD = 0.8317 
    MJSWGD =  0.465 
    CJSWGD = 1.536e-10 
    XTID =      3 
    LMLT =      1 
    WMLT =      1 
    LINT =  4e-09 
    LL = -5e-15 
    LLC =      0 
    LLN =    0.9 
    LW =      0 
    LWC =      0 
    LWN =      1 
    LWL =      0 
    LWLC =      0 
    LMIN = 3.96e-07 
    LMAX = 0.0001 
    WINT = -2e-08 
    WL = -1.1e-14 
    WLC =      0 
    WLN =   0.98 
    WW =  9e-15 
    WWC =      0 
    WWN =   0.96 
    WWL =      0 
    WWLC =      0 
    WMIN = 2.88e-07 
    WMAX = 0.0001 
    NOIA = 5.223e+41 
    NOIB = 1.399e+26 
    NOIC =  6e+09 
    EM =  2e+09 
    EF =   1.21 
    AF =      1 
    KF =      0 
    TRS =      0 
    TRD =      0 
    TEMPMOD  =      0 
    LAMBDA   =      0 
    VTL      =  2e+05 m/s
    LC       =  5e-09 
    XN       =      3 
    LLAMBDA  =      0 
    LVTL     =      0 
    LXN      =      0 
    WLAMBDA  =      0 
    WVTL     =      0 
    WXN      =      0 
    PLAMBDA  =      0 
    PVTL     =      0 
    PXN      =      0 
    RNOIA    =  0.577 
    RNOIB    = 0.5164 
    SAREF(SA0) = 2.61e-07 m
    SBREF(SB0) = 2.61e-07 m
    WLOD     =      0 m
    KU0      =  3e-09 1/m
    KVSAT    =      1 
    KVTH0    =  4e-09 m
    TKU0     =      0 
    LLODKU0  =      1 
    WLODKU0  =      1 
    LLODVTH  =      1 
    WLODVTH  =      1 
    LKU0     =  2e-06 
    WKU0     =      0 
    PKU0     =      0 
    LKVTH0   =  7e-07 
    WKVTH0   =  3e-07 
    PKVTH0   =  2e-13 
    STK2     =      0 
    LODK2    =      1 
    STETA0   =      0 
    LODETA0  =      1 
    LXRCRG1  =      0 
    WXRCRG1  =      0 
    PXRCRG1  =      0 
    LXRCRG2  =      0 
    WXRCRG2  =      0 
    PXRCRG2  =      0 
 

    *** UCB's BSIM4.4.0 new diode model is activated. ***
    *** UCB's Diode Model Parameters ***

    JTSS         =      0 
    JTSSWS       =      0 
    JTSSWGS      =  9e-09 
    JTSD         =      0 
    JTSSWD       =      0 
    JTSSWGD      =  9e-09 
    NJTS         =     20 
    NJTSSW       =     20 
    NJTSSWG      =     20 
    XTSS         =   0.02 
    XTSSWS       =   0.02 
    XTSSWGS      =   0.02 
    XTSD         =   0.02 
    XTSSWD       =   0.02 
    XTSSWGD      =   0.02 
    TNJTS        =      0 
    TNJTSSW      =      0 
    TNJTSSWG     =      0 
    VFBSDOFF     =      0 
    LVFBSDOFF    =      0 
    WVFBSDOFF    =      0 
    PVFBSDOFF    =      0 
    LINTNOI      = -1.8e-08 
    VTSS         =     10 
    VTSD         =     10 
    VTSSWS       =     10 
    VTSSWD       =     10 
    VTSSWGS      =     10 
    VTSSWGD      =     10 
    TTDIOMOD     =      1 
 

    *** UCB's BSIM4.5.0 new model is activated. ***
    UD         =  1e+14 
    UD1        =      0 
    UP         =      0 
    LP         =  1e-08 
    TVOFF      =  0.005 
    TVFBSDOFF  =      0 
    RBPS0      =     50 
    RBPSL      =      0 
    RBPSW      =      0 
    RBPSNF     =      0 
    RBPD0      =     50 
    RBPDL      =      0 
    RBPDW      =      0 
    RBPDNF     =      0 
    RBPBX0     =    100 
    RBPBXL     =      0 
    RBPBXW     =      0 
    RBPBXNF    =      0 
    RBPBY0     =    100 
    RBPBYL     =      0 
    RBPBYW     =      0 
    RBPBYNF    =      0 
    RBSBX0     =    100 
    RBSBY0     =    100 
    RBDBX0     =    100 
    RBDBY0     =    100 
    RBSDBXL    =      0 
    RBSDBXW    =      0 
    RBSDBXNF   =      0 
    RBSDBYL    =      0 
    RBSDBYW    =      0 
    RBSDBYNF   =      0 
    LUD        =      0 
    LUD1       =      0 
    LUP        =      0 
    LLP        =      0 
    LTVOFF     =      0 
    LTVFBSDOFF =      0 
    WUD        =      0 
    WUD1       =      0 
    WUP        =      0 
    WLP        =      0 
    WTVOFF     = 6.4e-10 
    WTVFBSDOFF =      0 
    PUD        =      0 
    PUD1       =      0 
    PUP        =      0 
    PLP        =      0 
    PTVOFF     =      0 
    PTVFBSDOFF =      0 
    WEB        =     10 
    WEC        =      0 
    KVTH0WE    = -0.008 
    K2WE       =      0 
    KU0WE      = -0.004 
    SCREF      =  1e-06 
    WPEMOD     =      1 
    LKVTH0WE   = -6e-10 
    LK2WE      =      0 
    LKU0WE     =      0 
    WKVTH0WE   =  3e-10 
    WK2WE      =      0 
    WKU0WE     = -1e-10 
    PKVTH0WE   =  1e-16 
    PK2WE      =      0 
    PKU0WE     = -8e-17 
 

 
Model Name: pod33ll_ckt  

 BSIM4 Model (Level 54)

    MOBMOD = 0
    BINUNIT = 2
    PARAMCHK = 1
    CAPMOD = 2
    DIOMOD = 2
    RDSMOD = 1
    TRNQSMOD = 0
    ACNQSMOD = 0
    RBODYMOD = 0
    RGATEMOD = 0
    PERMOD = 1
    GEOMOD = 0
    RGEOMOD = 1
    FNOIMOD = 1
    TNOIMOD = 0
    IGCMOD = 0
    IGBMOD = 0
    STIMOD = 1
    VBFWDMOD = 0
    VERSION =    4.5 
    TOXREF = 6.02e-09 
    TOXE = 5.921e-09 
    TOXP = 5.781e-09 
    TOXM = 5.921e-09 
    DTOX = 1.4e-10 
    EPSROX =    3.9 
    CDSC =      0 
    CDSCB =      0 
    CDSCD =      0 
    CIT = 0.00063 
    NFACTOR =   1.05 
    XJ = 1.37e-07 
    VSAT = 8.5e+04 
    A0 =  1.495 
    AGS =  0.275 
    A1 =      0 
    A2 =      1 
    AT =  6e+04 
    KETA = -0.002248 
    NSUB =  6e+16 
    NDEP =  1e+17 
    NSD =  1e+20 
    NGATE =  1e+21 
    GAMMA1 =      0 
    GAMMA2 =      0 
    VBX =      0 
    VBM =     -3 
    XT = 1.55e-07 
    K1 =    0.6 
    KT1 = -0.1793 
    KT1L =  2e-08 
    KT2 = -0.02903 
    K2 =  -0.05 
    K3 =      0 
    K3B =    0.7 
    LPE0 =  7e-08 
    LPEB =      0 
    DVTP0 = -1e-07 
    DVTP1 =      0 
    W0 =      0 
    DVT0 =      7 
    DVT1 =   0.36 
    DVT2 =   0.01 
    DVT0W =      0 
    DVT1W =      0 
    DVT2W =      0 
    DROUT =   0.56 
    DSUB =   0.56 
    VTH0 = -0.554 
    EU =   1.67 
    UA = 2.579e-10 
    UA1 = 1.768e-09 
    UB = 1.231e-18 
    UB1 = -3.029e-18 
    UC = -2e-11 
    UC1 = 4.849e-12 
    U0 = 0.01146 
    UTE =     -1 
    VOFF = -0.132 
    VOFFL = -1.4e-08 
    MINV =  -0.08 
    FPROUT =      0 
    PDITS =      0 
    PDITSD =      0 
    PDITSL =      0 
    DELTA =  0.004 
    RDSW =    477 
    RDSWMIN =      0 
    RDWMIN =      0 
    RSWMIN =      0 
    RDW =    270 
    RSW =    270 
    PRWG =      0 
    PRWB =      0 
    PRT =      0 
    ETA0 =   0.08 
    ETAB = -0.152 
    PCLM =  0.362 
    PDIBLC1 =      0 
    PDIBLC2 = 3.06e-05 
    PDIBLCB =      0 
    PSCBE1 = 4.24e+09 
    PSCBE2 =  1e-08 
    PVAG =      0 
    WR =      1 
    DWG =      0 
    DWB =      0 
    XW = 1.77e-08 
    XWREF = 1.77e-08 
    XL = 6.4e-09 
    XLREF = 6.4e-09 
    B0 =      0 
    B1 =      0 
    ALPHA0 = -5.285e-06 
    ALPHA1 =   15.9 
    AGIDL =  5e-10 
    BGIDL =  2e+09 
    CGIDL =    0.5 
    PHIN = 0.04597 
    EGIDL =   0.37 
    AIGC = 0.0098 
    BIGC = 0.000759 
    CIGC =   0.03 
    AIGSD = 0.0098 
    BIGSD = 0.000759 
    CIGSD =   0.03 
    AIGBACC = 0.000949 
    BIGBACC = 0.00171 
    CIGBACC =  0.075 
    AIGBINV = 0.0111 
    BIGBINV = 0.000949 
    CIGBINV =  0.006 
    NIGC =      1 
    NIGBINV =      3 
    NIGBACC =      1 
    NTOX =      1 
    EIGBINV =    1.1 
    PIGCD =      1 
    POXEDGE =      1 
    XRCRG1 =     12 
    TNOIA =    1.5 
    TNOIB =    3.5 
    NTNOI =      1 
    XRCRG2 =      1 
    BETA0 =   33.6 
    IJTHDFWD =    0.1 
    IJTHSFWD =    0.1 
    IJTHDREV =    0.1 
    IJTHSREV =    0.1 
    XJBVD =      1 
    XJBVS =      1 
    BVD =   8.55 
    BVS =   8.55 
    VFB =     -1 
    GBMIN =  1e-12 
    RBDB =     50 
    RBPB =     50 
    RBSB =     50 
    RBPS =     50 
    RBPD =     50 
    CGSL = 3.57e-10 
    CGDL = 3.57e-10 
    CKAPPAS =    0.6 
    CKAPPAD =    0.6 
    CF = 6.054e-11 
    CLC =  1e-07 
    CLE =    0.6 
    DWC = -6.5e-08 
    DLC = 7.306e-08 
    DLCIG =  5e-09 
    DWJ =      0 
    VFBCV =     -1 
    ACDE = 0.5037 
    MOIN =      8 
    NOFF =    1.4 
    VOFFCV =  -0.02 
    DMCG = 9.9e-08 
    DMCI = 1.62e-07 
    DMDG =      0 
    DMCGT =      0 
    XGW =      0 
    XGL =      0 
    RSHG =    0.1 
    NGCON =      1 
    TCJ = 0.0008479 
    TPB = 0.001659 
    TCJSW = 0.000503 
    TPBSW = 0.002829 
    TCJSWG = 0.0002 
    TPBSWG = 0.0003037 
    SK0 =      0 
    SK1 =      0 
    SK2 =      0 
    SL =  2e-06 
    SW =  2e-06 
    K =      0 
    LCIT = -2e-10 
    LVSAT = 0.008595 
    LAT =  -0.07 
    LA0 = -9e-07 
    LAGS = 2.5e-07 
    LKETA = -3.24e-09 
    LKT2 = 1.227e-09 
    LVTH0 = 4.2e-09 
    LUA = 1.616e-16 
    LUA1 = 3.45e-17 
    LUB = -1e-25 
    LUB1 =  1e-25 
    LUC = 4.705e-18 
    LU0 = 1.415e-09 
    LDELTA = 3.23e-09 
    LETA0 = 4.292e-08 
    LETAB = 1.7e-08 
    LPCLM = 1.3e-07 
    LPDIBLC2 =  6e-10 
    LALPHA0 = 8.338e-13 
    LBETA0 = -1.837e-06 
    LAGIDL = 5.1e-16 
    LNOFF =  6e-07 
    LVOFFCV = -4e-08 
    WAT =  0.023 
    WA0 =  5e-09 
    WKETA = 3.031e-09 
    WKT1 = 1.029e-08 
    WVTH0 =  2e-09 
    WUA = -6.12e-17 
    WUB = 1.996e-26 
    WUB1 = 1.94e-25 
    WU0 =  2e-10 
    WPCLM = -1e-08 
    WAGIDL =  6e-16 
    PVSAT = -2.029e-09 
    PAT =  5e-09 
    PA0 = 9.04e-14 
    PKT1 =  8e-15 
    PK2 = -1e-16 
    PDVT1 = 5.016e-15 
    PVTH0 =  7e-15 
    PUA = 4.596e-23 
    PUA1 = 3.438e-24 
    PUB = -3.305e-32 
    PUB1 =  8e-33 
    PUC = -1.25e-24 
    PUC1 = 2.2e-24 
    PU0 =  2e-16 
    PVOFF = -2.128e-15 
    PETA0 = 1.08e-14 
    PAGIDL = 4.4e-21 
    TNOM =  298.1 
    CGSO = 1.05e-11 
    CGDO = 1.05e-11 
    CGBO =      0 
    XPART =      1 
    RSH =     14 
    JSS = 1.593e-07 
    JSWS = 1.013e-13 
    JSWGS = 1.53e-12 
    PBS =  0.729 
    MJS = 0.3168 
    PBSWS =   1.03 
    MJSWS = 0.1784 
    CJS = 0.001171 
    CJSWS = 5.503e-11 
    NJS = 0.9839 
    PBSWGS = 0.8317 
    MJSWGS =  0.465 
    CJSWGS = 1.536e-10 
    XTIS =      3 
    JSD = 1.593e-07 
    JSWD = 1.013e-13 
    JSWGD = 1.53e-12 
    PBD =  0.729 
    MJD = 0.3168 
    PBSWD =   1.03 
    MJSWD = 0.1784 
    CJD = 0.001171 
    CJSWD = 5.503e-11 
    NJD = 0.9839 
    PBSWGD = 0.8317 
    MJSWGD =  0.465 
    CJSWGD = 1.536e-10 
    XTID =      3 
    LMLT =      1 
    WMLT =      1 
    LINT =  4e-09 
    LL = -5e-15 
    LLC =      0 
    LLN =    0.9 
    LW =      0 
    LWC =      0 
    LWN =      1 
    LWL =      0 
    LWLC =      0 
    LMIN = 3.96e-07 
    LMAX = 0.0001 
    WINT = -2e-08 
    WL = -1.1e-14 
    WLC =      0 
    WLN =   0.98 
    WW =  9e-15 
    WWC =      0 
    WWN =   0.96 
    WWL =      0 
    WWLC =      0 
    WMIN = 2.88e-07 
    WMAX = 0.0001 
    NOIA = 5.223e+41 
    NOIB = 1.399e+26 
    NOIC =  6e+09 
    EM =  2e+09 
    EF =   1.21 
    AF =      1 
    KF =      0 
    TRS =      0 
    TRD =      0 
    TEMPMOD  =      0 
    LAMBDA   =      0 
    VTL      =  2e+05 m/s
    LC       =  5e-09 
    XN       =      3 
    LLAMBDA  =      0 
    LVTL     =      0 
    LXN      =      0 
    WLAMBDA  =      0 
    WVTL     =      0 
    WXN      =      0 
    PLAMBDA  =      0 
    PVTL     =      0 
    PXN      =      0 
    RNOIA    =  0.577 
    RNOIB    = 0.5164 
    SAREF(SA0) = 2.61e-07 m
    SBREF(SB0) = 2.61e-07 m
    WLOD     =      0 m
    KU0      =  3e-09 1/m
    KVSAT    =      1 
    KVTH0    =  4e-09 m
    TKU0     =      0 
    LLODKU0  =      1 
    WLODKU0  =      1 
    LLODVTH  =      1 
    WLODVTH  =      1 
    LKU0     =  2e-06 
    WKU0     =      0 
    PKU0     =      0 
    LKVTH0   =  7e-07 
    WKVTH0   =  3e-07 
    PKVTH0   =  2e-13 
    STK2     =      0 
    LODK2    =      1 
    STETA0   =      0 
    LODETA0  =      1 
    LXRCRG1  =      0 
    WXRCRG1  =      0 
    PXRCRG1  =      0 
    LXRCRG2  =      0 
    WXRCRG2  =      0 
    PXRCRG2  =      0 
 

    *** UCB's BSIM4.4.0 new diode model is activated. ***
    *** UCB's Diode Model Parameters ***

    JTSS         =      0 
    JTSSWS       =      0 
    JTSSWGS      =  9e-09 
    JTSD         =      0 
    JTSSWD       =      0 
    JTSSWGD      =  9e-09 
    NJTS         =     20 
    NJTSSW       =     20 
    NJTSSWG      =     20 
    XTSS         =   0.02 
    XTSSWS       =   0.02 
    XTSSWGS      =   0.02 
    XTSD         =   0.02 
    XTSSWD       =   0.02 
    XTSSWGD      =   0.02 
    TNJTS        =      0 
    TNJTSSW      =      0 
    TNJTSSWG     =      0 
    VFBSDOFF     =      0 
    LVFBSDOFF    =      0 
    WVFBSDOFF    =      0 
    PVFBSDOFF    =      0 
    LINTNOI      = -1.8e-08 
    VTSS         =     10 
    VTSD         =     10 
    VTSSWS       =     10 
    VTSSWD       =     10 
    VTSSWGS      =     10 
    VTSSWGD      =     10 
    TTDIOMOD     =      1 
 

    *** UCB's BSIM4.5.0 new model is activated. ***
    UD         =  1e+14 
    UD1        =      0 
    UP         =      0 
    LP         =  1e-08 
    TVOFF      =  0.005 
    TVFBSDOFF  =      0 
    RBPS0      =     50 
    RBPSL      =      0 
    RBPSW      =      0 
    RBPSNF     =      0 
    RBPD0      =     50 
    RBPDL      =      0 
    RBPDW      =      0 
    RBPDNF     =      0 
    RBPBX0     =    100 
    RBPBXL     =      0 
    RBPBXW     =      0 
    RBPBXNF    =      0 
    RBPBY0     =    100 
    RBPBYL     =      0 
    RBPBYW     =      0 
    RBPBYNF    =      0 
    RBSBX0     =    100 
    RBSBY0     =    100 
    RBDBX0     =    100 
    RBDBY0     =    100 
    RBSDBXL    =      0 
    RBSDBXW    =      0 
    RBSDBXNF   =      0 
    RBSDBYL    =      0 
    RBSDBYW    =      0 
    RBSDBYNF   =      0 
    LUD        =      0 
    LUD1       =      0 
    LUP        =      0 
    LLP        =      0 
    LTVOFF     =      0 
    LTVFBSDOFF =      0 
    WUD        =      0 
    WUD1       =      0 
    WUP        =      0 
    WLP        =      0 
    WTVOFF     = 6.4e-10 
    WTVFBSDOFF =      0 
    PUD        =      0 
    PUD1       =      0 
    PUP        =      0 
    PLP        =      0 
    PTVOFF     =      0 
    PTVFBSDOFF =      0 
    WEB        =     10 
    WEC        =      0 
    KVTH0WE    = -0.008 
    K2WE       =      0 
    KU0WE      = -0.004 
    SCREF      =  1e-06 
    WPEMOD     =      1 
    LKVTH0WE   = -6e-10 
    LK2WE      =      0 
    LKU0WE     =      0 
    WKVTH0WE   =  3e-10 
    WK2WE      =      0 
    WKU0WE     = -1e-10 
    PKVTH0WE   =  1e-16 
    PK2WE      =      0 
    PKU0WE     = -8e-17 
 

 
Model Name: pod33ll_ckt  

 BSIM4 Model (Level 54)

    MOBMOD = 0
    BINUNIT = 2
    PARAMCHK = 1
    CAPMOD = 2
    DIOMOD = 2
    RDSMOD = 1
    TRNQSMOD = 0
    ACNQSMOD = 0
    RBODYMOD = 0
    RGATEMOD = 0
    PERMOD = 1
    GEOMOD = 0
    RGEOMOD = 1
    FNOIMOD = 1
    TNOIMOD = 0
    IGCMOD = 0
    IGBMOD = 0
    STIMOD = 1
    VBFWDMOD = 0
    VERSION =    4.5 
    TOXREF = 6.02e-09 
    TOXE = 5.921e-09 
    TOXP = 5.781e-09 
    TOXM = 5.921e-09 
    DTOX = 1.4e-10 
    EPSROX =    3.9 
    CDSC =      0 
    CDSCB =      0 
    CDSCD =      0 
    CIT = 0.00063 
    NFACTOR =   1.05 
    XJ = 1.37e-07 
    VSAT = 8.5e+04 
    A0 =  1.495 
    AGS =  0.275 
    A1 =      0 
    A2 =      1 
    AT =  6e+04 
    KETA = -0.002248 
    NSUB =  6e+16 
    NDEP =  1e+17 
    NSD =  1e+20 
    NGATE =  1e+21 
    GAMMA1 =      0 
    GAMMA2 =      0 
    VBX =      0 
    VBM =     -3 
    XT = 1.55e-07 
    K1 =    0.6 
    KT1 = -0.1793 
    KT1L =  2e-08 
    KT2 = -0.02903 
    K2 =  -0.05 
    K3 =      0 
    K3B =    0.7 
    LPE0 =  7e-08 
    LPEB =      0 
    DVTP0 = -1e-07 
    DVTP1 =      0 
    W0 =      0 
    DVT0 =      7 
    DVT1 =   0.36 
    DVT2 =   0.01 
    DVT0W =      0 
    DVT1W =      0 
    DVT2W =      0 
    DROUT =   0.56 
    DSUB =   0.56 
    VTH0 = -0.554 
    EU =   1.67 
    UA = 2.579e-10 
    UA1 = 1.768e-09 
    UB = 1.231e-18 
    UB1 = -3.029e-18 
    UC = -2e-11 
    UC1 = 4.849e-12 
    U0 = 0.01146 
    UTE =     -1 
    VOFF = -0.132 
    VOFFL = -1.4e-08 
    MINV =  -0.08 
    FPROUT =      0 
    PDITS =      0 
    PDITSD =      0 
    PDITSL =      0 
    DELTA =  0.004 
    RDSW =    477 
    RDSWMIN =      0 
    RDWMIN =      0 
    RSWMIN =      0 
    RDW =    270 
    RSW =    270 
    PRWG =      0 
    PRWB =      0 
    PRT =      0 
    ETA0 =   0.08 
    ETAB = -0.152 
    PCLM =  0.362 
    PDIBLC1 =      0 
    PDIBLC2 = 3.06e-05 
    PDIBLCB =      0 
    PSCBE1 = 4.24e+09 
    PSCBE2 =  1e-08 
    PVAG =      0 
    WR =      1 
    DWG =      0 
    DWB =      0 
    XW = 1.77e-08 
    XWREF = 1.77e-08 
    XL = 6.4e-09 
    XLREF = 6.4e-09 
    B0 =      0 
    B1 =      0 
    ALPHA0 = -5.285e-06 
    ALPHA1 =   15.9 
    AGIDL =  5e-10 
    BGIDL =  2e+09 
    CGIDL =    0.5 
    PHIN = 0.04597 
    EGIDL =   0.37 
    AIGC = 0.0098 
    BIGC = 0.000759 
    CIGC =   0.03 
    AIGSD = 0.0098 
    BIGSD = 0.000759 
    CIGSD =   0.03 
    AIGBACC = 0.000949 
    BIGBACC = 0.00171 
    CIGBACC =  0.075 
    AIGBINV = 0.0111 
    BIGBINV = 0.000949 
    CIGBINV =  0.006 
    NIGC =      1 
    NIGBINV =      3 
    NIGBACC =      1 
    NTOX =      1 
    EIGBINV =    1.1 
    PIGCD =      1 
    POXEDGE =      1 
    XRCRG1 =     12 
    TNOIA =    1.5 
    TNOIB =    3.5 
    NTNOI =      1 
    XRCRG2 =      1 
    BETA0 =   33.6 
    IJTHDFWD =    0.1 
    IJTHSFWD =    0.1 
    IJTHDREV =    0.1 
    IJTHSREV =    0.1 
    XJBVD =      1 
    XJBVS =      1 
    BVD =   8.55 
    BVS =   8.55 
    VFB =     -1 
    GBMIN =  1e-12 
    RBDB =     50 
    RBPB =     50 
    RBSB =     50 
    RBPS =     50 
    RBPD =     50 
    CGSL = 3.57e-10 
    CGDL = 3.57e-10 
    CKAPPAS =    0.6 
    CKAPPAD =    0.6 
    CF = 6.054e-11 
    CLC =  1e-07 
    CLE =    0.6 
    DWC = -6.5e-08 
    DLC = 7.306e-08 
    DLCIG =  5e-09 
    DWJ =      0 
    VFBCV =     -1 
    ACDE = 0.5037 
    MOIN =      8 
    NOFF =    1.4 
    VOFFCV =  -0.02 
    DMCG = 9.9e-08 
    DMCI = 1.62e-07 
    DMDG =      0 
    DMCGT =      0 
    XGW =      0 
    XGL =      0 
    RSHG =    0.1 
    NGCON =      1 
    TCJ = 0.0008479 
    TPB = 0.001659 
    TCJSW = 0.000503 
    TPBSW = 0.002829 
    TCJSWG = 0.0002 
    TPBSWG = 0.0003037 
    SK0 =      0 
    SK1 =      0 
    SK2 =      0 
    SL =  2e-06 
    SW =  2e-06 
    K =      0 
    LCIT = -2e-10 
    LVSAT = 0.008595 
    LAT =  -0.07 
    LA0 = -9e-07 
    LAGS = 2.5e-07 
    LKETA = -3.24e-09 
    LKT2 = 1.227e-09 
    LVTH0 = 4.2e-09 
    LUA = 1.616e-16 
    LUA1 = 3.45e-17 
    LUB = -1e-25 
    LUB1 =  1e-25 
    LUC = 4.705e-18 
    LU0 = 1.415e-09 
    LDELTA = 3.23e-09 
    LETA0 = 4.292e-08 
    LETAB = 1.7e-08 
    LPCLM = 1.3e-07 
    LPDIBLC2 =  6e-10 
    LALPHA0 = 8.338e-13 
    LBETA0 = -1.837e-06 
    LAGIDL = 5.1e-16 
    LNOFF =  6e-07 
    LVOFFCV = -4e-08 
    WAT =  0.023 
    WA0 =  5e-09 
    WKETA = 3.031e-09 
    WKT1 = 1.029e-08 
    WVTH0 =  2e-09 
    WUA = -6.12e-17 
    WUB = 1.996e-26 
    WUB1 = 1.94e-25 
    WU0 =  2e-10 
    WPCLM = -1e-08 
    WAGIDL =  6e-16 
    PVSAT = -2.029e-09 
    PAT =  5e-09 
    PA0 = 9.04e-14 
    PKT1 =  8e-15 
    PK2 = -1e-16 
    PDVT1 = 5.016e-15 
    PVTH0 =  7e-15 
    PUA = 4.596e-23 
    PUA1 = 3.438e-24 
    PUB = -3.305e-32 
    PUB1 =  8e-33 
    PUC = -1.25e-24 
    PUC1 = 2.2e-24 
    PU0 =  2e-16 
    PVOFF = -2.128e-15 
    PETA0 = 1.08e-14 
    PAGIDL = 4.4e-21 
    TNOM =  298.1 
    CGSO = 1.05e-11 
    CGDO = 1.05e-11 
    CGBO =      0 
    XPART =      1 
    RSH =     14 
    JSS = 1.593e-07 
    JSWS = 1.013e-13 
    JSWGS = 1.53e-12 
    PBS =  0.729 
    MJS = 0.3168 
    PBSWS =   1.03 
    MJSWS = 0.1784 
    CJS = 0.001171 
    CJSWS = 5.503e-11 
    NJS = 0.9839 
    PBSWGS = 0.8317 
    MJSWGS =  0.465 
    CJSWGS = 1.536e-10 
    XTIS =      3 
    JSD = 1.593e-07 
    JSWD = 1.013e-13 
    JSWGD = 1.53e-12 
    PBD =  0.729 
    MJD = 0.3168 
    PBSWD =   1.03 
    MJSWD = 0.1784 
    CJD = 0.001171 
    CJSWD = 5.503e-11 
    NJD = 0.9839 
    PBSWGD = 0.8317 
    MJSWGD =  0.465 
    CJSWGD = 1.536e-10 
    XTID =      3 
    LMLT =      1 
    WMLT =      1 
    LINT =  4e-09 
    LL = -5e-15 
    LLC =      0 
    LLN =    0.9 
    LW =      0 
    LWC =      0 
    LWN =      1 
    LWL =      0 
    LWLC =      0 
    LMIN = 3.96e-07 
    LMAX = 0.0001 
    WINT = -2e-08 
    WL = -1.1e-14 
    WLC =      0 
    WLN =   0.98 
    WW =  9e-15 
    WWC =      0 
    WWN =   0.96 
    WWL =      0 
    WWLC =      0 
    WMIN = 2.88e-07 
    WMAX = 0.0001 
    NOIA = 5.223e+41 
    NOIB = 1.399e+26 
    NOIC =  6e+09 
    EM =  2e+09 
    EF =   1.21 
    AF =      1 
    KF =      0 
    TRS =      0 
    TRD =      0 
    TEMPMOD  =      0 
    LAMBDA   =      0 
    VTL      =  2e+05 m/s
    LC       =  5e-09 
    XN       =      3 
    LLAMBDA  =      0 
    LVTL     =      0 
    LXN      =      0 
    WLAMBDA  =      0 
    WVTL     =      0 
    WXN      =      0 
    PLAMBDA  =      0 
    PVTL     =      0 
    PXN      =      0 
    RNOIA    =  0.577 
    RNOIB    = 0.5164 
    SAREF(SA0) = 2.61e-07 m
    SBREF(SB0) = 2.61e-07 m
    WLOD     =      0 m
    KU0      =  3e-09 1/m
    KVSAT    =      1 
    KVTH0    =  4e-09 m
    TKU0     =      0 
    LLODKU0  =      1 
    WLODKU0  =      1 
    LLODVTH  =      1 
    WLODVTH  =      1 
    LKU0     =  2e-06 
    WKU0     =      0 
    PKU0     =      0 
    LKVTH0   =  7e-07 
    WKVTH0   =  3e-07 
    PKVTH0   =  2e-13 
    STK2     =      0 
    LODK2    =      1 
    STETA0   =      0 
    LODETA0  =      1 
    LXRCRG1  =      0 
    WXRCRG1  =      0 
    PXRCRG1  =      0 
    LXRCRG2  =      0 
    WXRCRG2  =      0 
    PXRCRG2  =      0 
 

    *** UCB's BSIM4.4.0 new diode model is activated. ***
    *** UCB's Diode Model Parameters ***

    JTSS         =      0 
    JTSSWS       =      0 
    JTSSWGS      =  9e-09 
    JTSD         =      0 
    JTSSWD       =      0 
    JTSSWGD      =  9e-09 
    NJTS         =     20 
    NJTSSW       =     20 
    NJTSSWG      =     20 
    XTSS         =   0.02 
    XTSSWS       =   0.02 
    XTSSWGS      =   0.02 
    XTSD         =   0.02 
    XTSSWD       =   0.02 
    XTSSWGD      =   0.02 
    TNJTS        =      0 
    TNJTSSW      =      0 
    TNJTSSWG     =      0 
    VFBSDOFF     =      0 
    LVFBSDOFF    =      0 
    WVFBSDOFF    =      0 
    PVFBSDOFF    =      0 
    LINTNOI      = -1.8e-08 
    VTSS         =     10 
    VTSD         =     10 
    VTSSWS       =     10 
    VTSSWD       =     10 
    VTSSWGS      =     10 
    VTSSWGD      =     10 
    TTDIOMOD     =      1 
 

    *** UCB's BSIM4.5.0 new model is activated. ***
    UD         =  1e+14 
    UD1        =      0 
    UP         =      0 
    LP         =  1e-08 
    TVOFF      =  0.005 
    TVFBSDOFF  =      0 
    RBPS0      =     50 
    RBPSL      =      0 
    RBPSW      =      0 
    RBPSNF     =      0 
    RBPD0      =     50 
    RBPDL      =      0 
    RBPDW      =      0 
    RBPDNF     =      0 
    RBPBX0     =    100 
    RBPBXL     =      0 
    RBPBXW     =      0 
    RBPBXNF    =      0 
    RBPBY0     =    100 
    RBPBYL     =      0 
    RBPBYW     =      0 
    RBPBYNF    =      0 
    RBSBX0     =    100 
    RBSBY0     =    100 
    RBDBX0     =    100 
    RBDBY0     =    100 
    RBSDBXL    =      0 
    RBSDBXW    =      0 
    RBSDBXNF   =      0 
    RBSDBYL    =      0 
    RBSDBYW    =      0 
    RBSDBYNF   =      0 
    LUD        =      0 
    LUD1       =      0 
    LUP        =      0 
    LLP        =      0 
    LTVOFF     =      0 
    LTVFBSDOFF =      0 
    WUD        =      0 
    WUD1       =      0 
    WUP        =      0 
    WLP        =      0 
    WTVOFF     = 6.4e-10 
    WTVFBSDOFF =      0 
    PUD        =      0 
    PUD1       =      0 
    PUP        =      0 
    PLP        =      0 
    PTVOFF     =      0 
    PTVFBSDOFF =      0 
    WEB        =     10 
    WEC        =      0 
    KVTH0WE    = -0.008 
    K2WE       =      0 
    KU0WE      = -0.004 
    SCREF      =  1e-06 
    WPEMOD     =      1 
    LKVTH0WE   = -6e-10 
    LK2WE      =      0 
    LKU0WE     =      0 
    WKVTH0WE   =  3e-10 
    WK2WE      =      0 
    WKU0WE     = -1e-10 
    PKVTH0WE   =  1e-16 
    PK2WE      =      0 
    PKU0WE     = -8e-17 
 

 
Model Name: pod33ll_ckt  

 BSIM4 Model (Level 54)

    MOBMOD = 0
    BINUNIT = 2
    PARAMCHK = 1
    CAPMOD = 2
    DIOMOD = 2
    RDSMOD = 1
    TRNQSMOD = 0
    ACNQSMOD = 0
    RBODYMOD = 0
    RGATEMOD = 0
    PERMOD = 1
    GEOMOD = 0
    RGEOMOD = 1
    FNOIMOD = 1
    TNOIMOD = 0
    IGCMOD = 0
    IGBMOD = 0
    STIMOD = 1
    VBFWDMOD = 0
    VERSION =    4.5 
    TOXREF = 6.02e-09 
    TOXE = 5.921e-09 
    TOXP = 5.781e-09 
    TOXM = 5.921e-09 
    DTOX = 1.4e-10 
    EPSROX =    3.9 
    CDSC =      0 
    CDSCB =      0 
    CDSCD =      0 
    CIT = 0.00063 
    NFACTOR =   1.05 
    XJ = 1.37e-07 
    VSAT = 8.5e+04 
    A0 =  1.495 
    AGS =  0.275 
    A1 =      0 
    A2 =      1 
    AT =  6e+04 
    KETA = -0.002248 
    NSUB =  6e+16 
    NDEP =  1e+17 
    NSD =  1e+20 
    NGATE =  1e+21 
    GAMMA1 =      0 
    GAMMA2 =      0 
    VBX =      0 
    VBM =     -3 
    XT = 1.55e-07 
    K1 =    0.6 
    KT1 = -0.1793 
    KT1L =  2e-08 
    KT2 = -0.02903 
    K2 =  -0.05 
    K3 =      0 
    K3B =    0.7 
    LPE0 =  7e-08 
    LPEB =      0 
    DVTP0 = -1e-07 
    DVTP1 =      0 
    W0 =      0 
    DVT0 =      7 
    DVT1 =   0.36 
    DVT2 =   0.01 
    DVT0W =      0 
    DVT1W =      0 
    DVT2W =      0 
    DROUT =   0.56 
    DSUB =   0.56 
    VTH0 = -0.554 
    EU =   1.67 
    UA = 2.579e-10 
    UA1 = 1.768e-09 
    UB = 1.231e-18 
    UB1 = -3.029e-18 
    UC = -2e-11 
    UC1 = 4.849e-12 
    U0 = 0.01146 
    UTE =     -1 
    VOFF = -0.132 
    VOFFL = -1.4e-08 
    MINV =  -0.08 
    FPROUT =      0 
    PDITS =      0 
    PDITSD =      0 
    PDITSL =      0 
    DELTA =  0.004 
    RDSW =    477 
    RDSWMIN =      0 
    RDWMIN =      0 
    RSWMIN =      0 
    RDW =    270 
    RSW =    270 
    PRWG =      0 
    PRWB =      0 
    PRT =      0 
    ETA0 =   0.08 
    ETAB = -0.152 
    PCLM =  0.362 
    PDIBLC1 =      0 
    PDIBLC2 = 3.06e-05 
    PDIBLCB =      0 
    PSCBE1 = 4.24e+09 
    PSCBE2 =  1e-08 
    PVAG =      0 
    WR =      1 
    DWG =      0 
    DWB =      0 
    XW = 1.77e-08 
    XWREF = 1.77e-08 
    XL = 6.4e-09 
    XLREF = 6.4e-09 
    B0 =      0 
    B1 =      0 
    ALPHA0 = -5.285e-06 
    ALPHA1 =   15.9 
    AGIDL =  5e-10 
    BGIDL =  2e+09 
    CGIDL =    0.5 
    PHIN = 0.04597 
    EGIDL =   0.37 
    AIGC = 0.0098 
    BIGC = 0.000759 
    CIGC =   0.03 
    AIGSD = 0.0098 
    BIGSD = 0.000759 
    CIGSD =   0.03 
    AIGBACC = 0.000949 
    BIGBACC = 0.00171 
    CIGBACC =  0.075 
    AIGBINV = 0.0111 
    BIGBINV = 0.000949 
    CIGBINV =  0.006 
    NIGC =      1 
    NIGBINV =      3 
    NIGBACC =      1 
    NTOX =      1 
    EIGBINV =    1.1 
    PIGCD =      1 
    POXEDGE =      1 
    XRCRG1 =     12 
    TNOIA =    1.5 
    TNOIB =    3.5 
    NTNOI =      1 
    XRCRG2 =      1 
    BETA0 =   33.6 
    IJTHDFWD =    0.1 
    IJTHSFWD =    0.1 
    IJTHDREV =    0.1 
    IJTHSREV =    0.1 
    XJBVD =      1 
    XJBVS =      1 
    BVD =   8.55 
    BVS =   8.55 
    VFB =     -1 
    GBMIN =  1e-12 
    RBDB =     50 
    RBPB =     50 
    RBSB =     50 
    RBPS =     50 
    RBPD =     50 
    CGSL = 3.57e-10 
    CGDL = 3.57e-10 
    CKAPPAS =    0.6 
    CKAPPAD =    0.6 
    CF = 6.054e-11 
    CLC =  1e-07 
    CLE =    0.6 
    DWC = -6.5e-08 
    DLC = 7.306e-08 
    DLCIG =  5e-09 
    DWJ =      0 
    VFBCV =     -1 
    ACDE = 0.5037 
    MOIN =      8 
    NOFF =    1.4 
    VOFFCV =  -0.02 
    DMCG = 9.9e-08 
    DMCI = 1.62e-07 
    DMDG =      0 
    DMCGT =      0 
    XGW =      0 
    XGL =      0 
    RSHG =    0.1 
    NGCON =      1 
    TCJ = 0.0008479 
    TPB = 0.001659 
    TCJSW = 0.000503 
    TPBSW = 0.002829 
    TCJSWG = 0.0002 
    TPBSWG = 0.0003037 
    SK0 =      0 
    SK1 =      0 
    SK2 =      0 
    SL =  2e-06 
    SW =  2e-06 
    K =      0 
    LCIT = -2e-10 
    LVSAT = 0.008595 
    LAT =  -0.07 
    LA0 = -9e-07 
    LAGS = 2.5e-07 
    LKETA = -3.24e-09 
    LKT2 = 1.227e-09 
    LVTH0 = 4.2e-09 
    LUA = 1.616e-16 
    LUA1 = 3.45e-17 
    LUB = -1e-25 
    LUB1 =  1e-25 
    LUC = 4.705e-18 
    LU0 = 1.415e-09 
    LDELTA = 3.23e-09 
    LETA0 = 4.292e-08 
    LETAB = 1.7e-08 
    LPCLM = 1.3e-07 
    LPDIBLC2 =  6e-10 
    LALPHA0 = 8.338e-13 
    LBETA0 = -1.837e-06 
    LAGIDL = 5.1e-16 
    LNOFF =  6e-07 
    LVOFFCV = -4e-08 
    WAT =  0.023 
    WA0 =  5e-09 
    WKETA = 3.031e-09 
    WKT1 = 1.029e-08 
    WVTH0 =  2e-09 
    WUA = -6.12e-17 
    WUB = 1.996e-26 
    WUB1 = 1.94e-25 
    WU0 =  2e-10 
    WPCLM = -1e-08 
    WAGIDL =  6e-16 
    PVSAT = -2.029e-09 
    PAT =  5e-09 
    PA0 = 9.04e-14 
    PKT1 =  8e-15 
    PK2 = -1e-16 
    PDVT1 = 5.016e-15 
    PVTH0 =  7e-15 
    PUA = 4.596e-23 
    PUA1 = 3.438e-24 
    PUB = -3.305e-32 
    PUB1 =  8e-33 
    PUC = -1.25e-24 
    PUC1 = 2.2e-24 
    PU0 =  2e-16 
    PVOFF = -2.128e-15 
    PETA0 = 1.08e-14 
    PAGIDL = 4.4e-21 
    TNOM =  298.1 
    CGSO = 1.05e-11 
    CGDO = 1.05e-11 
    CGBO =      0 
    XPART =      1 
    RSH =     14 
    JSS = 1.593e-07 
    JSWS = 1.013e-13 
    JSWGS = 1.53e-12 
    PBS =  0.729 
    MJS = 0.3168 
    PBSWS =   1.03 
    MJSWS = 0.1784 
    CJS = 0.001171 
    CJSWS = 5.503e-11 
    NJS = 0.9839 
    PBSWGS = 0.8317 
    MJSWGS =  0.465 
    CJSWGS = 1.536e-10 
    XTIS =      3 
    JSD = 1.593e-07 
    JSWD = 1.013e-13 
    JSWGD = 1.53e-12 
    PBD =  0.729 
    MJD = 0.3168 
    PBSWD =   1.03 
    MJSWD = 0.1784 
    CJD = 0.001171 
    CJSWD = 5.503e-11 
    NJD = 0.9839 
    PBSWGD = 0.8317 
    MJSWGD =  0.465 
    CJSWGD = 1.536e-10 
    XTID =      3 
    LMLT =      1 
    WMLT =      1 
    LINT =  4e-09 
    LL = -5e-15 
    LLC =      0 
    LLN =    0.9 
    LW =      0 
    LWC =      0 
    LWN =      1 
    LWL =      0 
    LWLC =      0 
    LMIN = 3.96e-07 
    LMAX = 0.0001 
    WINT = -2e-08 
    WL = -1.1e-14 
    WLC =      0 
    WLN =   0.98 
    WW =  9e-15 
    WWC =      0 
    WWN =   0.96 
    WWL =      0 
    WWLC =      0 
    WMIN = 2.88e-07 
    WMAX = 0.0001 
    NOIA = 5.223e+41 
    NOIB = 1.399e+26 
    NOIC =  6e+09 
    EM =  2e+09 
    EF =   1.21 
    AF =      1 
    KF =      0 
    TRS =      0 
    TRD =      0 
    TEMPMOD  =      0 
    LAMBDA   =      0 
    VTL      =  2e+05 m/s
    LC       =  5e-09 
    XN       =      3 
    LLAMBDA  =      0 
    LVTL     =      0 
    LXN      =      0 
    WLAMBDA  =      0 
    WVTL     =      0 
    WXN      =      0 
    PLAMBDA  =      0 
    PVTL     =      0 
    PXN      =      0 
    RNOIA    =  0.577 
    RNOIB    = 0.5164 
    SAREF(SA0) = 2.61e-07 m
    SBREF(SB0) = 2.61e-07 m
    WLOD     =      0 m
    KU0      =  3e-09 1/m
    KVSAT    =      1 
    KVTH0    =  4e-09 m
    TKU0     =      0 
    LLODKU0  =      1 
    WLODKU0  =      1 
    LLODVTH  =      1 
    WLODVTH  =      1 
    LKU0     =  2e-06 
    WKU0     =      0 
    PKU0     =      0 
    LKVTH0   =  7e-07 
    WKVTH0   =  3e-07 
    PKVTH0   =  2e-13 
    STK2     =      0 
    LODK2    =      1 
    STETA0   =      0 
    LODETA0  =      1 
    LXRCRG1  =      0 
    WXRCRG1  =      0 
    PXRCRG1  =      0 
    LXRCRG2  =      0 
    WXRCRG2  =      0 
    PXRCRG2  =      0 
 

    *** UCB's BSIM4.4.0 new diode model is activated. ***
    *** UCB's Diode Model Parameters ***

    JTSS         =      0 
    JTSSWS       =      0 
    JTSSWGS      =  9e-09 
    JTSD         =      0 
    JTSSWD       =      0 
    JTSSWGD      =  9e-09 
    NJTS         =     20 
    NJTSSW       =     20 
    NJTSSWG      =     20 
    XTSS         =   0.02 
    XTSSWS       =   0.02 
    XTSSWGS      =   0.02 
    XTSD         =   0.02 
    XTSSWD       =   0.02 
    XTSSWGD      =   0.02 
    TNJTS        =      0 
    TNJTSSW      =      0 
    TNJTSSWG     =      0 
    VFBSDOFF     =      0 
    LVFBSDOFF    =      0 
    WVFBSDOFF    =      0 
    PVFBSDOFF    =      0 
    LINTNOI      = -1.8e-08 
    VTSS         =     10 
    VTSD         =     10 
    VTSSWS       =     10 
    VTSSWD       =     10 
    VTSSWGS      =     10 
    VTSSWGD      =     10 
    TTDIOMOD     =      1 
 

    *** UCB's BSIM4.5.0 new model is activated. ***
    UD         =  1e+14 
    UD1        =      0 
    UP         =      0 
    LP         =  1e-08 
    TVOFF      =  0.005 
    TVFBSDOFF  =      0 
    RBPS0      =     50 
    RBPSL      =      0 
    RBPSW      =      0 
    RBPSNF     =      0 
    RBPD0      =     50 
    RBPDL      =      0 
    RBPDW      =      0 
    RBPDNF     =      0 
    RBPBX0     =    100 
    RBPBXL     =      0 
    RBPBXW     =      0 
    RBPBXNF    =      0 
    RBPBY0     =    100 
    RBPBYL     =      0 
    RBPBYW     =      0 
    RBPBYNF    =      0 
    RBSBX0     =    100 
    RBSBY0     =    100 
    RBDBX0     =    100 
    RBDBY0     =    100 
    RBSDBXL    =      0 
    RBSDBXW    =      0 
    RBSDBXNF   =      0 
    RBSDBYL    =      0 
    RBSDBYW    =      0 
    RBSDBYNF   =      0 
    LUD        =      0 
    LUD1       =      0 
    LUP        =      0 
    LLP        =      0 
    LTVOFF     =      0 
    LTVFBSDOFF =      0 
    WUD        =      0 
    WUD1       =      0 
    WUP        =      0 
    WLP        =      0 
    WTVOFF     = 6.4e-10 
    WTVFBSDOFF =      0 
    PUD        =      0 
    PUD1       =      0 
    PUP        =      0 
    PLP        =      0 
    PTVOFF     =      0 
    PTVFBSDOFF =      0 
    WEB        =     10 
    WEC        =      0 
    KVTH0WE    = -0.008 
    K2WE       =      0 
    KU0WE      = -0.004 
    SCREF      =  1e-06 
    WPEMOD     =      1 
    LKVTH0WE   = -6e-10 
    LK2WE      =      0 
    LKU0WE     =      0 
    WKVTH0WE   =  3e-10 
    WK2WE      =      0 
    WKU0WE     = -1e-10 
    PKVTH0WE   =  1e-16 
    PK2WE      =      0 
    PKU0WE     = -8e-17 
 

 
Model Name: pod33ll_ckt  

 BSIM4 Model (Level 54)

    MOBMOD = 0
    BINUNIT = 2
    PARAMCHK = 1
    CAPMOD = 2
    DIOMOD = 2
    RDSMOD = 1
    TRNQSMOD = 0
    ACNQSMOD = 0
    RBODYMOD = 0
    RGATEMOD = 0
    PERMOD = 1
    GEOMOD = 0
    RGEOMOD = 1
    FNOIMOD = 1
    TNOIMOD = 0
    IGCMOD = 0
    IGBMOD = 0
    STIMOD = 1
    VBFWDMOD = 0
    VERSION =    4.5 
    TOXREF = 6.02e-09 
    TOXE = 5.921e-09 
    TOXP = 5.781e-09 
    TOXM = 5.921e-09 
    DTOX = 1.4e-10 
    EPSROX =    3.9 
    CDSC =      0 
    CDSCB =      0 
    CDSCD =      0 
    CIT = 0.00063 
    NFACTOR =   1.05 
    XJ = 1.37e-07 
    VSAT = 8.5e+04 
    A0 =  1.495 
    AGS =  0.275 
    A1 =      0 
    A2 =      1 
    AT =  6e+04 
    KETA = -0.002248 
    NSUB =  6e+16 
    NDEP =  1e+17 
    NSD =  1e+20 
    NGATE =  1e+21 
    GAMMA1 =      0 
    GAMMA2 =      0 
    VBX =      0 
    VBM =     -3 
    XT = 1.55e-07 
    K1 =    0.6 
    KT1 = -0.1793 
    KT1L =  2e-08 
    KT2 = -0.02903 
    K2 =  -0.05 
    K3 =      0 
    K3B =    0.7 
    LPE0 =  7e-08 
    LPEB =      0 
    DVTP0 = -1e-07 
    DVTP1 =      0 
    W0 =      0 
    DVT0 =      7 
    DVT1 =   0.36 
    DVT2 =   0.01 
    DVT0W =      0 
    DVT1W =      0 
    DVT2W =      0 
    DROUT =   0.56 
    DSUB =   0.56 
    VTH0 = -0.554 
    EU =   1.67 
    UA = 2.579e-10 
    UA1 = 1.768e-09 
    UB = 1.231e-18 
    UB1 = -3.029e-18 
    UC = -2e-11 
    UC1 = 4.849e-12 
    U0 = 0.01146 
    UTE =     -1 
    VOFF = -0.132 
    VOFFL = -1.4e-08 
    MINV =  -0.08 
    FPROUT =      0 
    PDITS =      0 
    PDITSD =      0 
    PDITSL =      0 
    DELTA =  0.004 
    RDSW =    477 
    RDSWMIN =      0 
    RDWMIN =      0 
    RSWMIN =      0 
    RDW =    270 
    RSW =    270 
    PRWG =      0 
    PRWB =      0 
    PRT =      0 
    ETA0 =   0.08 
    ETAB = -0.152 
    PCLM =  0.362 
    PDIBLC1 =      0 
    PDIBLC2 = 3.06e-05 
    PDIBLCB =      0 
    PSCBE1 = 4.24e+09 
    PSCBE2 =  1e-08 
    PVAG =      0 
    WR =      1 
    DWG =      0 
    DWB =      0 
    XW = 1.77e-08 
    XWREF = 1.77e-08 
    XL = 6.4e-09 
    XLREF = 6.4e-09 
    B0 =      0 
    B1 =      0 
    ALPHA0 = -5.285e-06 
    ALPHA1 =   15.9 
    AGIDL =  5e-10 
    BGIDL =  2e+09 
    CGIDL =    0.5 
    PHIN = 0.04597 
    EGIDL =   0.37 
    AIGC = 0.0098 
    BIGC = 0.000759 
    CIGC =   0.03 
    AIGSD = 0.0098 
    BIGSD = 0.000759 
    CIGSD =   0.03 
    AIGBACC = 0.000949 
    BIGBACC = 0.00171 
    CIGBACC =  0.075 
    AIGBINV = 0.0111 
    BIGBINV = 0.000949 
    CIGBINV =  0.006 
    NIGC =      1 
    NIGBINV =      3 
    NIGBACC =      1 
    NTOX =      1 
    EIGBINV =    1.1 
    PIGCD =      1 
    POXEDGE =      1 
    XRCRG1 =     12 
    TNOIA =    1.5 
    TNOIB =    3.5 
    NTNOI =      1 
    XRCRG2 =      1 
    BETA0 =   33.6 
    IJTHDFWD =    0.1 
    IJTHSFWD =    0.1 
    IJTHDREV =    0.1 
    IJTHSREV =    0.1 
    XJBVD =      1 
    XJBVS =      1 
    BVD =   8.55 
    BVS =   8.55 
    VFB =     -1 
    GBMIN =  1e-12 
    RBDB =     50 
    RBPB =     50 
    RBSB =     50 
    RBPS =     50 
    RBPD =     50 
    CGSL = 3.57e-10 
    CGDL = 3.57e-10 
    CKAPPAS =    0.6 
    CKAPPAD =    0.6 
    CF = 6.054e-11 
    CLC =  1e-07 
    CLE =    0.6 
    DWC = -6.5e-08 
    DLC = 7.306e-08 
    DLCIG =  5e-09 
    DWJ =      0 
    VFBCV =     -1 
    ACDE = 0.5037 
    MOIN =      8 
    NOFF =    1.4 
    VOFFCV =  -0.02 
    DMCG = 9.9e-08 
    DMCI = 1.62e-07 
    DMDG =      0 
    DMCGT =      0 
    XGW =      0 
    XGL =      0 
    RSHG =    0.1 
    NGCON =      1 
    TCJ = 0.0008479 
    TPB = 0.001659 
    TCJSW = 0.000503 
    TPBSW = 0.002829 
    TCJSWG = 0.0002 
    TPBSWG = 0.0003037 
    SK0 =      0 
    SK1 =      0 
    SK2 =      0 
    SL =  2e-06 
    SW =  2e-06 
    K =      0 
    LCIT = -2e-10 
    LVSAT = 0.008595 
    LAT =  -0.07 
    LA0 = -9e-07 
    LAGS = 2.5e-07 
    LKETA = -3.24e-09 
    LKT2 = 1.227e-09 
    LVTH0 = 4.2e-09 
    LUA = 1.616e-16 
    LUA1 = 3.45e-17 
    LUB = -1e-25 
    LUB1 =  1e-25 
    LUC = 4.705e-18 
    LU0 = 1.415e-09 
    LDELTA = 3.23e-09 
    LETA0 = 4.292e-08 
    LETAB = 1.7e-08 
    LPCLM = 1.3e-07 
    LPDIBLC2 =  6e-10 
    LALPHA0 = 8.338e-13 
    LBETA0 = -1.837e-06 
    LAGIDL = 5.1e-16 
    LNOFF =  6e-07 
    LVOFFCV = -4e-08 
    WAT =  0.023 
    WA0 =  5e-09 
    WKETA = 3.031e-09 
    WKT1 = 1.029e-08 
    WVTH0 =  2e-09 
    WUA = -6.12e-17 
    WUB = 1.996e-26 
    WUB1 = 1.94e-25 
    WU0 =  2e-10 
    WPCLM = -1e-08 
    WAGIDL =  6e-16 
    PVSAT = -2.029e-09 
    PAT =  5e-09 
    PA0 = 9.04e-14 
    PKT1 =  8e-15 
    PK2 = -1e-16 
    PDVT1 = 5.016e-15 
    PVTH0 =  7e-15 
    PUA = 4.596e-23 
    PUA1 = 3.438e-24 
    PUB = -3.305e-32 
    PUB1 =  8e-33 
    PUC = -1.25e-24 
    PUC1 = 2.2e-24 
    PU0 =  2e-16 
    PVOFF = -2.128e-15 
    PETA0 = 1.08e-14 
    PAGIDL = 4.4e-21 
    TNOM =  298.1 
    CGSO = 1.05e-11 
    CGDO = 1.05e-11 
    CGBO =      0 
    XPART =      1 
    RSH =     14 
    JSS = 1.593e-07 
    JSWS = 1.013e-13 
    JSWGS = 1.53e-12 
    PBS =  0.729 
    MJS = 0.3168 
    PBSWS =   1.03 
    MJSWS = 0.1784 
    CJS = 0.001171 
    CJSWS = 5.503e-11 
    NJS = 0.9839 
    PBSWGS = 0.8317 
    MJSWGS =  0.465 
    CJSWGS = 1.536e-10 
    XTIS =      3 
    JSD = 1.593e-07 
    JSWD = 1.013e-13 
    JSWGD = 1.53e-12 
    PBD =  0.729 
    MJD = 0.3168 
    PBSWD =   1.03 
    MJSWD = 0.1784 
    CJD = 0.001171 
    CJSWD = 5.503e-11 
    NJD = 0.9839 
    PBSWGD = 0.8317 
    MJSWGD =  0.465 
    CJSWGD = 1.536e-10 
    XTID =      3 
    LMLT =      1 
    WMLT =      1 
    LINT =  4e-09 
    LL = -5e-15 
    LLC =      0 
    LLN =    0.9 
    LW =      0 
    LWC =      0 
    LWN =      1 
    LWL =      0 
    LWLC =      0 
    LMIN = 3.96e-07 
    LMAX = 0.0001 
    WINT = -2e-08 
    WL = -1.1e-14 
    WLC =      0 
    WLN =   0.98 
    WW =  9e-15 
    WWC =      0 
    WWN =   0.96 
    WWL =      0 
    WWLC =      0 
    WMIN = 2.88e-07 
    WMAX = 0.0001 
    NOIA = 5.223e+41 
    NOIB = 1.399e+26 
    NOIC =  6e+09 
    EM =  2e+09 
    EF =   1.21 
    AF =      1 
    KF =      0 
    TRS =      0 
    TRD =      0 
    TEMPMOD  =      0 
    LAMBDA   =      0 
    VTL      =  2e+05 m/s
    LC       =  5e-09 
    XN       =      3 
    LLAMBDA  =      0 
    LVTL     =      0 
    LXN      =      0 
    WLAMBDA  =      0 
    WVTL     =      0 
    WXN      =      0 
    PLAMBDA  =      0 
    PVTL     =      0 
    PXN      =      0 
    RNOIA    =  0.577 
    RNOIB    = 0.5164 
    SAREF(SA0) = 2.61e-07 m
    SBREF(SB0) = 2.61e-07 m
    WLOD     =      0 m
    KU0      =  3e-09 1/m
    KVSAT    =      1 
    KVTH0    =  4e-09 m
    TKU0     =      0 
    LLODKU0  =      1 
    WLODKU0  =      1 
    LLODVTH  =      1 
    WLODVTH  =      1 
    LKU0     =  2e-06 
    WKU0     =      0 
    PKU0     =      0 
    LKVTH0   =  7e-07 
    WKVTH0   =  3e-07 
    PKVTH0   =  2e-13 
    STK2     =      0 
    LODK2    =      1 
    STETA0   =      0 
    LODETA0  =      1 
    LXRCRG1  =      0 
    WXRCRG1  =      0 
    PXRCRG1  =      0 
    LXRCRG2  =      0 
    WXRCRG2  =      0 
    PXRCRG2  =      0 
 

    *** UCB's BSIM4.4.0 new diode model is activated. ***
    *** UCB's Diode Model Parameters ***

    JTSS         =      0 
    JTSSWS       =      0 
    JTSSWGS      =  9e-09 
    JTSD         =      0 
    JTSSWD       =      0 
    JTSSWGD      =  9e-09 
    NJTS         =     20 
    NJTSSW       =     20 
    NJTSSWG      =     20 
    XTSS         =   0.02 
    XTSSWS       =   0.02 
    XTSSWGS      =   0.02 
    XTSD         =   0.02 
    XTSSWD       =   0.02 
    XTSSWGD      =   0.02 
    TNJTS        =      0 
    TNJTSSW      =      0 
    TNJTSSWG     =      0 
    VFBSDOFF     =      0 
    LVFBSDOFF    =      0 
    WVFBSDOFF    =      0 
    PVFBSDOFF    =      0 
    LINTNOI      = -1.8e-08 
    VTSS         =     10 
    VTSD         =     10 
    VTSSWS       =     10 
    VTSSWD       =     10 
    VTSSWGS      =     10 
    VTSSWGD      =     10 
    TTDIOMOD     =      1 
 

    *** UCB's BSIM4.5.0 new model is activated. ***
    UD         =  1e+14 
    UD1        =      0 
    UP         =      0 
    LP         =  1e-08 
    TVOFF      =  0.005 
    TVFBSDOFF  =      0 
    RBPS0      =     50 
    RBPSL      =      0 
    RBPSW      =      0 
    RBPSNF     =      0 
    RBPD0      =     50 
    RBPDL      =      0 
    RBPDW      =      0 
    RBPDNF     =      0 
    RBPBX0     =    100 
    RBPBXL     =      0 
    RBPBXW     =      0 
    RBPBXNF    =      0 
    RBPBY0     =    100 
    RBPBYL     =      0 
    RBPBYW     =      0 
    RBPBYNF    =      0 
    RBSBX0     =    100 
    RBSBY0     =    100 
    RBDBX0     =    100 
    RBDBY0     =    100 
    RBSDBXL    =      0 
    RBSDBXW    =      0 
    RBSDBXNF   =      0 
    RBSDBYL    =      0 
    RBSDBYW    =      0 
    RBSDBYNF   =      0 
    LUD        =      0 
    LUD1       =      0 
    LUP        =      0 
    LLP        =      0 
    LTVOFF     =      0 
    LTVFBSDOFF =      0 
    WUD        =      0 
    WUD1       =      0 
    WUP        =      0 
    WLP        =      0 
    WTVOFF     = 6.4e-10 
    WTVFBSDOFF =      0 
    PUD        =      0 
    PUD1       =      0 
    PUP        =      0 
    PLP        =      0 
    PTVOFF     =      0 
    PTVFBSDOFF =      0 
    WEB        =     10 
    WEC        =      0 
    KVTH0WE    = -0.008 
    K2WE       =      0 
    KU0WE      = -0.004 
    SCREF      =  1e-06 
    WPEMOD     =      1 
    LKVTH0WE   = -6e-10 
    LK2WE      =      0 
    LKU0WE     =      0 
    WKVTH0WE   =  3e-10 
    WK2WE      =      0 
    WKU0WE     = -1e-10 
    PKVTH0WE   =  1e-16 
    PK2WE      =      0 
    PKU0WE     = -8e-17 
 

 
Model Name: nod33ll_ckt  

 BSIM4 Model (Level 54)

    MOBMOD = 0
    BINUNIT = 2
    PARAMCHK = 1
    CAPMOD = 2
    DIOMOD = 2
    RDSMOD = 1
    TRNQSMOD = 0
    ACNQSMOD = 0
    RBODYMOD = 0
    RGATEMOD = 0
    PERMOD = 1
    GEOMOD = 0
    RGEOMOD = 1
    FNOIMOD = 1
    TNOIMOD = 0
    IGCMOD = 0
    IGBMOD = 0
    STIMOD = 1
    VBFWDMOD = 0
    VERSION =    4.5 
    TOXREF = 5.63e-09 
    TOXE = 5.49e-09 
    TOXP = 5.594e-09 
    TOXM = 5.63e-09 
    DTOX = -1.036e-10 
    EPSROX =    3.9 
    CDSC =  5e-05 
    CDSCB = 2.002e-05 
    CDSCD =      0 
    CIT = 0.0007521 
    NFACTOR =  1.414 
    XJ = 1.42e-07 
    VSAT = 9.4e+04 
    A0 =      1 
    AGS = 0.3474 
    A1 =      0 
    A2 =      1 
    AT = 1.38e+04 
    KETA = -0.003203 
    NSUB =  6e+16 
    NDEP = 1.3e+17 
    NSD =  1e+20 
    NGATE = 2.27e+22 
    GAMMA1 =      0 
    GAMMA2 =      0 
    VBX =      0 
    VBM =     -3 
    XT = 1.55e-07 
    K1 = 0.6381 
    KT1 = -0.173 
    KT1L = 3.417e-09 
    KT2 = -0.03838 
    K2 = 0.00301 
    K3 = -2.907 
    K3B =      0 
    LPE0 = 5.562e-08 
    LPEB =      0 
    DVTP0 =      0 
    DVTP1 =      0 
    W0 = -9.093e-08 
    DVT0 = 0.6583 
    DVT1 = 0.1013 
    DVT2 =      0 
    DVT0W = 0.5231 
    DVT1W = 1.18e+06 
    DVT2W =  1.064 
    DROUT =   0.56 
    DSUB =    0.7 
    VTH0 = 0.5725 
    EU =   1.67 
    UA = -9.715e-10 
    UA1 = 2.558e-09 
    UB = 2.378e-18 
    UB1 = -2.418e-18 
    UC = 1.209e-10 
    UC1 = -1e-12 
    U0 = 0.03516 
    UTE = -0.9763 
    VOFF = -0.1843 
    VOFFL = 9.667e-10 
    MINV = -0.6978 
    FPROUT =      0 
    PDITS =      0 
    PDITSD =      0 
    PDITSL =      0 
    DELTA = 0.003263 
    RDSW =    200 
    RDSWMIN =      0 
    RDWMIN =      0 
    RSWMIN =      0 
    RDW =  162.8 
    RSW =  162.8 
    PRWG =      0 
    PRWB =  0.028 
    PRT =      0 
    ETA0 =  0.118 
    ETAB = -0.1213 
    PCLM =  0.348 
    PDIBLC1 = 0.02463 
    PDIBLC2 = 0.0001766 
    PDIBLCB =  0.189 
    PSCBE1 = 4.24e+08 
    PSCBE2 = 3.491e-08 
    PVAG =      1 
    WR =      1 
    DWG = 8.451e-09 
    DWB = 1.096e-13 
    XW = 2.07e-08 
    XWREF = 2.07e-08 
    XL = 3.4e-08 
    XLREF = 3.4e-08 
    B0 = 5.953e-08 
    B1 =      0 
    ALPHA0 = 3.657e-08 
    ALPHA1 =  9.581 
    AGIDL = 9.423e-09 
    BGIDL = 2.636e+09 
    CGIDL =  130.1 
    PHIN =   0.15 
    EGIDL =  0.496 
    AIGC = 0.0136 
    BIGC = 0.00171 
    CIGC =  0.075 
    AIGSD = 0.0136 
    BIGSD = 0.00171 
    CIGSD =  0.075 
    AIGBACC = 0.000949 
    BIGBACC = 0.00171 
    CIGBACC =  0.075 
    AIGBINV = 0.0111 
    BIGBINV = 0.000949 
    CIGBINV =  0.006 
    NIGC =      1 
    NIGBINV =      3 
    NIGBACC =      1 
    NTOX =      1 
    EIGBINV =    1.1 
    PIGCD =      1 
    POXEDGE =      1 
    XRCRG1 =     12 
    TNOIA =    1.5 
    TNOIB =    3.5 
    NTNOI =      1 
    XRCRG2 =      1 
    BETA0 =  22.91 
    IJTHDFWD =    0.1 
    IJTHSFWD =    0.1 
    IJTHDREV =    0.1 
    IJTHSREV =    0.1 
    XJBVD =      1 
    XJBVS =      1 
    BVD =   9.45 
    BVS =   9.45 
    VFB =     -1 
    GBMIN =  1e-12 
    RBDB =     50 
    RBPB =     50 
    RBSB =     50 
    RBPS =     50 
    RBPD =     50 
    CGSL = 3.885e-10 
    CGDL = 3.885e-10 
    CKAPPAS =    0.6 
    CKAPPAD =    0.6 
    CF = 6.197e-11 
    CLC =  1e-07 
    CLE =    0.6 
    DWC = -6.5e-08 
    DLC = 8.665e-08 
    DLCIG =      0 
    DWJ =      0 
    VFBCV =     -1 
    ACDE = 0.2864 
    MOIN =  5.099 
    NOFF =  1.954 
    VOFFCV = -0.1431 
    DMCG = 9.9e-08 
    DMCI = 1.62e-07 
    DMDG =      0 
    DMCGT =      0 
    XGW =      0 
    XGL =      0 
    RSHG =    0.1 
    NGCON =      1 
    TCJ = 0.0008075 
    TPB = 0.001579 
    TCJSW = 0.0003398 
    TPBSW = 0.0006488 
    TCJSWG = 0.0005936 
    TPBSWG = 0.0003669 
    SK0 =      0 
    SK1 =      0 
    SK2 =      0 
    SL =  2e-06 
    SW =  2e-06 
    K =      0 
    LCIT = -5.294e-11 
    LVSAT = -0.008054 
    LKT1 = 1.1e-09 
    LKT2 =  4e-09 
    LK2 = -6.36e-09 
    LVTH0 = 6.748e-10 
    LUA = 5.684e-16 
    LUA1 = 5.971e-16 
    LUB = -1.843e-27 
    LUB1 = -5.981e-25 
    LUC = 1.868e-17 
    LUC1 = -2e-17 
    LU0 = 1.008e-08 
    LUTE = -3.976e-08 
    LDELTA = 1.069e-08 
    LPCLM = 6.797e-08 
    LALPHA1 = 7.643e-07 
    LBETA0 = 2.298e-08 
    LAGIDL = 3.57e-15 
    LCGIDL = 1.53e-05 
    LNOFF = 1.3e-07 
    LVOFFCV = -1.515e-08 
    WVSAT = -0.01913 
    WAGS = 4.368e-09 
    WKT1 = -2e-09 
    WVTH0 = -4.609e-09 
    WUA1 = -1.82e-16 
    WUB = -2.145e-25 
    WUB1 = -2e-26 
    WUC = -2.829e-17 
    WU0 = -3.282e-09 
    WUTE = -3.645e-08 
    WALPHA1 = 3.099e-07 
    WAGIDL = 2.905e-14 
    PCIT = -2.632e-18 
    PVSAT = 3.259e-09 
    PAT = -5.735e-11 
    PAGS = 2.156e-13 
    PKT1 = -5.122e-16 
    PK2 = 2.241e-15 
    PK3 = 2.24e-13 
    PPE0 = 5.024e-21 
    PDVT0 = -1.376e-14 
    PVTH0 = -1.33e-14 
    PUA = 4.702e-23 
    PUA1 = -7.425e-24 
    PUB = -2.178e-31 
    PUB1 = 2.525e-31 
    PUC = -1.091e-23 
    PUC1 =  1e-23 
    PU0 = -2.383e-15 
    PUTE = 2.392e-14 
    PETA0 = -3.61e-15 
    PPCLM = 2.4e-14 
    PBETA0 = -5.44e-14 
    PAGIDL = 1.367e-20 
    TNOM =  298.1 
    CGSO = 1.575e-12 
    CGDO = 1.575e-12 
    CGBO =      0 
    XPART =      1 
    RSH =   13.2 
    JSS = 2.308e-07 
    JSWS = 1.013e-13 
    JSWGS = 5.6e-14 
    PBS = 0.5832 
    MJS = 0.2363 
    PBSWS = 0.3922 
    MJSWS = 0.2203 
    CJS = 0.001256 
    CJSWS = 7.646e-11 
    NJS = 0.9807 
    PBSWGS =  0.976 
    MJSWGS =    0.6 
    CJSWGS = 1.297e-10 
    XTIS =      3 
    JSD = 2.308e-07 
    JSWD = 1.013e-13 
    JSWGD = 5.6e-14 
    PBD = 0.5832 
    MJD = 0.2363 
    PBSWD = 0.3922 
    MJSWD = 0.2203 
    CJD = 0.001256 
    CJSWD = 7.646e-11 
    NJD = 0.9807 
    PBSWGD =  0.976 
    MJSWGD =    0.6 
    CJSWGD = 1.297e-10 
    XTID =      3 
    LMLT =      1 
    WMLT =      1 
[...]
    WUP        =      0 
    WLP        =      0 
    WTVOFF     = 6.4e-10 
    WTVFBSDOFF =      0 
    PUD        =      0 
    PUD1       =      0 
    PUP        =      0 
    PLP        =      0 
    PTVOFF     =      0 
    PTVFBSDOFF =      0 
    WEB        =     10 
    WEC        =      0 
    KVTH0WE    = -0.008 
    K2WE       =      0 
    KU0WE      = -0.004 
    SCREF      =  1e-06 
    WPEMOD     =      1 
    LKVTH0WE   = -6e-10 
    LK2WE      =      0 
    LKU0WE     =      0 
    WKVTH0WE   =  3e-10 
    WK2WE      =      0 
    WKU0WE     = -1e-10 
    PKVTH0WE   =  1e-16 
    PK2WE      =      0 
    PKU0WE     = -8e-17 
 

  **info** (/export/home/wllv/shzhang/Bagging/test_bench/test3/circuit/tmp/worker.11/netlist:739) DC voltage reset to initial transient source value              in source        0:vdn                 new dc=  0.0000D+00
  **warning** (/export/home/wllv/shzhang/Bagging/test_bench/test3/circuit/tmp/worker.11/netlist:737) Capacitance of    1.000E+09 for c0 is too high. Please verify capacitance value.
 
      
 **info** set option symb=1 internally to help for convergence.
 *****************************************************************
 ******  option summary
 ******
 runlvl  = 3         bypass  = 2         

 **info** dc convergence failure, 
 resetting dcon option to 1 and retrying

 **info** dc convergence successful
 you can increase the efficiency of the
 operating point calculation by setting dcon= 1
 in the .option statement
1****** HSPICE -- D-2010.03 64-BIT (Feb 23 2010) linux ******                   
 ******  
 * msp generated netlist file

  ******  operating point information tnom=  25.000 temp= -40.000 *****
 ***** operating point status is all       simulation time is     0.     
     node    =voltage       node    =voltage       node    =voltage

 + 0:dn_net  =   0.       0:dnb_net =   0.       0:i10u_net=   1.6351 
 + 0:i5u_net = 965.7291m  0:up_net  =   0.       0:upb_net =   0.     
 + 0:vcp_net =   2.2000   0:vdd33_ne=   3.3000   1:nb2     = 686.4160m
 + 1:net0119 = 187.2547m  1:net0124 = 189.4783m  1:net0149 = 686.4160m
 + 1:net0153 = 686.4160m  1:net35   =   3.2385   1:net47   =   3.2383 
 + 1:net58   = 189.0067m  1:net62   = 189.5184m  1:net78   =   0.     
 + 1:net79   =   3.3000   1:net91   =   1.8733   1:net98   =   2.4107 
 + 1:pb1     =   2.5488   1:pb2     =   2.6157   1:quench  =   2.1305 
 + 2:n78     =   1.1164   2:n79     =  21.2700m  2:net18   =   2.8605 


 ****  voltage sources

 subckt                                                              
 element   0:v0        0:vdn       0:vdnb      0:vupb      0:vup     
  volts       3.3000      0.          0.          0.          0.     
  current  -147.4972u     0.          0.          0.          0.     
  power     486.7406u     0.          0.          0.          0.     

 subckt    xi0         xi0       
 element   1:vlower    1:vupper  
  volts       0.          0.     
  current    40.0269u    40.1477u
  power       0.          0.     

     total voltage source power dissipation=  486.7406u       watts



 ***** current sources

 subckt                          
 element   0:i10       0:i5      
  volts       1.6649      2.3343 
  current    10.0000u     5.0000u
  power     -16.6495u   -11.6714u


     total current source power dissipation= -28.3208u       watts


 **** mosfets


 subckt    xi0.xnm31   xi0.xnm30   xi0.xpm29   xi0.xpm22   xi0.xpm11 
 element   3:m1        4:m1        5:m1        6:m1        7:m1      
 model     3:nod33ll_  3:nod33ll_  5:pod33ll_  5:pod33ll_  7:pod33ll_
 region        Cutoff      Cutoff      Cutoff      Cutoff      Linear
  id         12.3055f    12.0524f   -60.7582a   -60.6101a   -10.0190u
  ibs      -4.461e-25  -4.369e-25   2.425e-27   2.425e-27   196.9643a
  ibd      -965.7291f  -686.4160f   891.4721f   804.3037f   153.3700f
  vgs         0.          0.          0.          0.       -684.2510m
  vds       965.7291m   686.4160m  -751.1849m  -684.2510m   -61.5480m
  vbs         0.          0.          0.          0.          0.     
  vth       604.9813m   604.9974m  -598.7406m  -598.7406m  -602.1714m
  vdsat      32.2615m    32.2615m   -33.0726m   -33.0726m  -110.9214m
  vod      -604.9813m  -604.9974m   598.7406m   598.7406m   -82.0796m
  beta        4.4527m     4.4527m   395.1892u   395.1892u     2.7852m
  gam eff   638.0600m   638.0600m   600.0000m   600.0000m   600.0000m
  gm        455.7805f   446.4059f     2.3954f     2.3896f   129.5822u
  gds       787.9318a     1.0586f     2.1819a     2.2467a    99.3762u
  gmb       150.3005f   147.2108f   734.9730a   733.1801a    34.8967u
  cdtot       1.9084f     2.0858f     3.7514f     3.8313f    93.0988f
  cgtot       5.4853f     5.6019f    19.0781f    19.1240f   168.8400f
  cstot       3.1256f     3.1256f     5.4342f     5.4342f   158.3188f
  cbtot       4.7801f     4.8409f    19.7677f    19.8017f    66.2746f
  cgs         1.8876f     1.8876f     2.6967f     2.6967f   110.9134f
  cgd       983.6252a     1.1003f     1.5606f     1.6065f    46.7717f



 subckt    xi0.xpm12   xi0.xpm8    xi0.xpm10   xi0.xpm3    xi0.xpm1  
 element   8:m1        9:m1       10:m1       11:m1       12:m1      
 model     8:pod33ll_  9:pod33ll_ 10:pod33ll_ 11:pod33ll_ 11:pod33ll_
 region        Linear    Saturati    Saturati      Linear      Linear
  id        -40.1477u   -40.1477u   -10.0190u   -22.6141u   -17.4131u
  ibs       789.2700a   623.7308f   155.4689f   220.2623f   290.0169f
  ibd       615.3109f    11.0845p     1.9989p   544.7212f   546.0573f
  vgs      -684.2510m  -689.4552m  -689.6369m    -2.2000     -2.1305 
  vds       -61.7297m  -827.5619m  -622.7030m  -326.6769m  -257.2067m
  vbs         0.         61.7297m    61.5480m   210.7084m   280.1786m
  vth      -602.1715m  -617.0638m  -617.0171m  -644.7188m  -660.1222m
  vdsat    -110.9212m  -101.2760m  -101.4385m    -1.3669     -1.2966 
  vod       -82.0796m   -72.3914m   -72.6198m    -1.5553     -1.4704 
  beta       11.1409m     9.7752m     2.4438m    53.0238u    53.5412u
  gam eff   600.0000m   600.0000m   600.0000m   600.0000m   600.0000m
  gm        519.6586u   709.6037u   176.9364u    12.1737u     9.8293u
  gds       396.0813u     1.0510u   311.2685n    61.9652u    62.3158u
  gmb       139.9384u   180.5312u    45.0194u     4.8903u     3.7348u
  cdtot     371.3908f    77.1342f    21.8333f     9.5840f     9.8050f
  cgtot     675.1370f   709.1943f   179.5518f    10.1448f    10.1622f
  cstot     624.9481f   733.3097f   185.2777f     9.7796f     9.7447f
  cbtot     256.8694f   280.3836f    72.3714f     3.1142f     3.0896f
  cgs       443.8345f   575.3138f   143.9485f     5.6125f     5.4853f
  cgd       186.6256f    49.4095f    14.5148f     4.4656f     4.5939f



 subckt    xi0.xpm2    xi0.xpm4    xi0.xnm5    xi0.xnm6    xi0.xnm7  
 element  13:m1       14:m1       15:m1       16:m1       17:m1      
 model    11:pod33ll_ 11:pod33ll_ 15:nod33ll_ 15:nod33ll_ 15:nod33ll_
 region        Linear      Linear      Cutoff      Cutoff      Cutoff
  id        -22.6813u   -17.4664u     0.          0.          0.     
  ibs         5.7076f     4.3953f    -1.8733p    -2.2000p    -1.8733p
  ibd       279.8372f   210.1119f    -2.2000p    -2.4107p    -2.1305p
  vgs        -2.4107     -2.4107     -1.8733     -2.2000     -1.8733 
  vds      -280.1786m  -210.7084m   326.6769m   210.7084m   257.2067m
  vbs         0.          0.         -1.8733     -2.2000     -1.8733 
  vth      -592.8539m  -592.5128m     1.0066      1.0620      1.0066 
  vdsat      -1.5888     -1.5902     34.7655m    35.0663m    34.7655m
  vod        -1.8179     -1.8182     -2.8800     -3.2620     -2.8800 
  beta       51.4740u    51.4647u   530.7256u   530.2377u   530.7256u
  gam eff   600.0000m   600.0000m   638.0600m   638.0600m   638.0600m
  gm          9.2295u     6.8458u     0.          0.          0.     
  gds        76.1531u    80.2653u     0.          0.          0.     
  gmb         4.9232u     3.7516u     0.          0.          0.     
  cdtot      10.3039f    10.5999f   715.2948a   698.7956a   721.1582a
  cgtot      10.2221f    10.2436f     3.0488f     3.0285f     3.0514f
  cstot      10.2102f    10.2625f   745.0493a   715.2948a   745.0493a
  cbtot       3.4077f     3.4773f     3.4068f     3.3811f     3.4101f
  cgs         5.5494f     5.4448f   282.5248a   269.1952a   282.5248a
  cgd         4.6800f     4.8075f   268.8623a   261.7350a   271.4346a



 subckt    xi0.xnm9    xi0.xnm14   xi0.xnm18   xi0.xnm21   xi0.xnm23 
 element  18:m1       19:m1       20:m1       21:m1       22:m1      
 model    15:nod33ll_ 19:nod33ll_ 20:nod33ll_ 21:nod33ll_ 19:nod33ll_
 region        Cutoff    Saturati    Saturati    Saturati    Saturati
  id          0.         10.0087u    40.0269u     5.0043u    10.0000u
  ibs        -2.1305p  -380.0949f    -1.5163p  -190.0073f  -375.5664f
  ibd        -2.4107p    -5.2304p   -14.9822p    -2.5483p    -1.3718p
  vgs        -2.1305    776.2107m   776.7224m   776.2508m   778.4744m
  vds       280.1786m     2.4262      1.6843      2.3593    499.1613m
  vbs        -2.1305   -189.5184m  -189.0067m  -189.4783m  -187.2547m
  vth         1.0505    644.3628m   644.2196m   644.3516m   643.7289m
  vdsat      35.0056m   145.8075m   146.2096m   145.8390m   147.5893m
  vod        -3.1810    131.8479m   132.5028m   131.8993m   134.7455m
  beta      530.3309u   876.0423u     3.5041m   438.0200u   875.9138u
  gam eff   638.0600m   638.0600m   638.0600m   638.0600m   638.0600m
  gm          0.         97.6977u   390.0823u    48.8424u    96.6514u
  gds         0.         76.1135n   418.0847n    38.9174n   432.3218n
  gmb         0.         26.7266u   106.7192u    13.3616u    26.4532u
  cdtot     698.7956a     1.4011f     6.3756f   994.4509a     2.6319f
  cgtot       3.0311f    19.6043f    78.9435f     9.8062f    20.5674f
  cstot     721.1582a    22.4603f    87.4809f    11.2303f    22.4663f
  cbtot       3.3843f     8.1408f    30.4500f     4.3604f     8.4010f
  cgs       271.7778a    17.7965f    71.2093f     8.8985f    17.8400f
  cgd       261.7350a   602.2405a     2.9177f   305.0179a     1.5385f



 subckt    xi0.xnm15   xi0.xnm17   xi0.xnm20   xi0.xnm24   xi0.xnm33 
 element  23:m1       24:m1       25:m1       26:m1       27:m1      
 model    23:nod33ll_ 24:nod33ll_ 25:nod33ll_ 23:nod33ll_ 27:nod33ll_
 region      Saturati    Saturati    Saturati    Saturati      Linear
  id         10.0087u    40.0269u     5.0043u    10.0000u   -25.7771f
  ibs      -626.8681a    -2.5070f  -313.4293a  -626.3262a  -686.4160f
  ibd      -378.4067f    -1.5095p  -189.1632f  -373.8798f  -686.4160f
  vgs       686.4160m   686.4160m   686.4160m   686.4160m   948.6385m
  vds       189.5184m   189.0067m   189.4783m   187.2547m  -479.5069p
  vbs         0.          0.          0.          0.       -686.4160m
  vth       595.6251m   595.6251m   595.6251m   595.6250m   770.2791m
  vdsat     119.8582m   119.8583m   119.8582m   119.8584m   183.0204m
  vod        90.7909m    90.7909m    90.7909m    90.7909m   178.3593m
  beta        1.4414m     5.7656m   720.7026u     1.4414m   303.5446u
  gam eff   638.0600m   638.0600m   638.0600m   638.0600m   638.0600m
  gm        110.4146u   441.5015u    55.2058u   110.2376u   125.0162f
  gds         3.7568u    15.1751u     1.8798u     3.9246u    54.3666u
  gmb        33.1566u   132.5801u    16.5778u    33.1045u    29.3401f
  cdtot       7.2842f    29.2694f     4.0093f     7.4334f    17.7409f
  cgtot      34.9083f   139.6707f    17.4545f    34.9506f    18.6577f
  cstot      36.3148f   142.7258f    18.1575f    36.3218f    19.1238f
  cbtot      13.5895f    51.8257f     7.1607f    13.5979f     4.8494f
  cgs        28.9126f   115.6422f    14.4562f    28.9033f     9.0829f
  cgd         3.9535f    15.8704f     1.9773f     4.0169f     9.6841f



 subckt    xi0.xnm32   xi0.xnm27   xi0.xnm13   xi0.xnm25   xi0.xpm19 
 element  28:m1       29:m1       30:m1       31:m1       32:m1      
 model    27:nod33ll_ 29:nod33ll_ 30:nod33ll_ 31:nod33ll_ 32:pod33ll_
 region        Linear      Linear    Saturati    Saturati    Saturati
  id        -39.5054f     0.          5.0000u    10.0000u    -5.0079u
  ibs      -686.4160f     0.       -648.2039a    -1.3741p   191.7749a
  ibd      -686.4160f     0.       -965.0636f    -3.2688p   911.7420f
  vgs       948.6385m   686.4160m   965.7291m   948.6385m  -751.1849m
  vds      -734.8813p     0.        965.7291m   948.6385m  -751.1849m
  vbs      -686.4160m     0.          0.       -686.4160m     0.     
  vth       770.2791m   595.4348m   580.8109m   767.5629m  -598.4953m
  vdsat     183.0204m   120.4866m   326.3151m   183.8967m  -157.6497m
  vod       178.3593m    90.9812m   384.9182m   181.0756m  -152.6897m
  beta      303.5446u   646.6196u    78.9215u   556.9306u   408.9563u
  gam eff   638.0600m   638.0600m   638.0600m   638.0600m   600.0000m
  gm        191.5969f     0.         24.3665u    84.0723u    56.7174u
  gds        54.3666u     0.         28.5273n   146.4589n    97.8468n
  gmb        44.9660f     0.          6.9123u    19.2307u    14.8546u
  cdtot      17.7409f   477.1014f     1.0612f     2.0731f     5.3466f
  cgtot      18.6577f   467.2000f    33.5633f    22.4991f    53.6818f
  cstot      19.1238f   463.8901f    37.7850f    24.3579f    57.3522f
  cbtot       4.8494f   155.7021f    11.4329f     7.7853f    21.0066f
  cgs         9.0829f   241.5295f    31.2438f    20.1958f    45.5271f
  cgd         9.6841f   224.4394f   587.0329a     1.1838f     3.0756f



 subckt    xi0.xnm26   xi0.xpm28   xi0.xnm34   xi0.xi40.x  xi0.xi40.x
 element  33:m1       34:m1       35:m1       36:m1       37:m1      
 model    33:nod33ll_ 34:pod33ll_ 35:nod33ll_ 36:pod33ll_ 36:pod33ll_
 region        Linear      Linear      Linear    Saturati    Saturati
  id          0.          0.          0.        -18.6106u    -6.5521u
  ibs         0.          0.          0.        755.5124a   265.9850a
  ibd         0.          0.          0.          3.4934p    26.5529p
  vgs       965.7291m  -684.2510m     3.3000   -729.9624m  -660.4923m
  vds         0.          0.          0.       -729.9624m    -2.8392 
  vbs         0.          0.          0.          0.          0.     
  vth       593.8624m  -594.1782m   595.8650m  -599.7504m  -599.7206m
  vdsat     319.8363m   -98.0830m     2.3835   -143.9191m   -91.6888m
  vod       371.8667m   -90.0728m     2.7041   -130.2121m   -60.7716m
  beta      340.3794u   116.0497u     1.5808m     1.9282m     1.9417m
  gam eff   638.0600m   600.0000m   638.0600m   600.0000m   600.0000m
  gm          0.          0.          0.        236.3601u   123.6769u
  gds         0.          0.          0.        474.0584n    93.0655n
  gmb         0.          0.          0.         62.3275u    32.6904u
  cdtot     243.6343f   279.8749f     1.0531p    21.4976f    12.2066f
  cgtot     232.0942f   278.7763f   987.1943f   162.3475f   144.3874f
  cstot     233.3325f   268.2504f   999.0491f   177.9195f   162.6733f
  cbtot      73.8572f    94.8149f   294.8046f    73.3592f    71.0022f
  cgs       121.3368f   138.9204f   526.6078f   134.8946f   120.1334f
  cgd       114.1636f   126.6102f   490.6459f    11.5349f     4.8901f



 subckt    xi0.xi40.x  xi0.xi40.x  xi0.xi40.x  xi0.xi40.x  xi0.xi40.x
 element  38:m1       39:m1       40:m1       41:m1       42:m1      
 model    38:nod33ll_ 39:nod33ll_ 40:pod33ll_ 41:pod33ll_ 42:pod33ll_
 region      Saturati      Linear      Linear    Saturati    Saturati
  id         23.8783u     6.5539u     0.        -52.1577u   -25.1646u
  ibs        -1.8970f  -520.6681a     0.          1.0783f   520.2476a
  ibd        -4.2591p  -127.0992f     0.         57.7725p     2.9158p
  vgs         1.1164      1.1164   -684.2510m  -684.2510m  -684.2510m
  vds         2.1305     21.2700m     0.         -2.1836   -439.5078m
  vbs         0.          0.          0.          0.          0.     
  vth       587.0290m   586.7617m  -598.0303m  -600.4536m  -600.4528m
  vdsat     441.7234m   442.5801m  -105.6920m  -108.0105m  -108.0133m
  vod       529.3453m   529.6125m   -86.2207m   -83.7974m   -83.7982m
  beta      202.7853u   608.3090u   355.8663u    10.3691m     5.1845m
  gam eff   638.0600m   638.0600m   600.0000m   600.0000m   600.0000m
  gm         86.3205u    12.3155u     0.        861.6781u   417.5545u
  gds        48.6882n   302.8606u     0.        751.0627n   930.3367n
  gmb        24.1779u     3.7914u     0.        227.8210u   110.4017u
  cdtot       1.7802f   532.4512f    64.7353f    55.2977f    53.9826f
  cgtot     132.1696f   517.4356f    61.8272f   814.8293f   427.3428f
  cstot     151.0678f   516.5064f    61.5109f   881.3011f   440.2680f
  cbtot      43.6823f   154.8668f    27.0408f   331.5955f   172.2406f
  cgs       125.3810f   276.0751f    30.2699f   688.1001f   344.5724f
  cgd       920.5894a   250.7723f    28.8525f    29.2918f    34.2255f



 subckt    xi0.xi40.x
 element  43:m1      
 model    43:pod33ll_
 region      Saturati
  id        -52.1580u
  ibs         1.6187f
  ibd         3.0824p
  vgs        -1.0951 
  vds        -1.1164 
  vbs         0.     
  vth      -595.9791m
  vdsat    -421.8705m
  vod      -499.1251m
  beta      493.3508u
  gam eff   600.0000m
  gm        196.9086u
  gds       382.7501n
  gmb        49.3731u
  cdtot      12.7628f
  cgtot     275.7865f
  cstot     300.8710f
  cbtot      91.1280f
  cgs       251.7530f
  cgd         7.7142f



 ******  
 * msp generated netlist file

  ******  transient analysis tnom=  25.000 temp= -40.000 *****
   up_imin= -2.4485E-04    at=  2.0010E-08
               from=  2.0000E-08    to=  1.0000E-07
   up_iavg=  4.0267E-05  from=  2.0000E-08     to=  1.8000E-07
   up_imax=  3.0411E-04    at=  2.0019E-08
               from=  2.0000E-08    to=  1.0000E-07
   lo_imin=  3.5489E-05    at=  4.0019E-08
               from=  2.0000E-08    to=  1.0000E-07
   lo_iavg=  4.0027E-05  from=  2.0000E-08     to=  1.8000E-07
   lo_imax=  4.3127E-05    at=  9.0005E-08
               from=  2.0000E-08    to=  1.0000E-07

          ***** job concluded
1****** HSPICE -- D-2010.03 64-BIT (Feb 23 2010) linux ******                   
 ******  
 * msp generated netlist file

  ******  job statistics summary tnom=  25.000 temp= -40.000 *****
 
 
 ******  Machine Information  ******
 CPU:
 model name	: Intel(R) Xeon(R) CPU E7- 8837  @ 2.67GHz
 cpu MHz	: 1064.000
 
 OS:
 Linux version 2.6.32-220.el6.x86_64 (mockbuild@x86-004.build.bos.redhat.com) (g
 cc version 4.4.5 20110214 (Red Hat 4.4.5-6) (GCC) ) #1 SMP Wed Nov 9 08:03:13 E
 ST 2011


  ******  HSPICE Threads Information  ******

  Command Line Threads Count                  :     1
  Available CPU Count                         :    64
  Actual Model Evaluation(Load) Threads Count :     1
  Actual Solver Threads Count                 :     1


  ******  Circuit Statistics  ******
  # nodes       =     110 # elements   =      51
  # resistors   =       0 # capacitors =       1 # inductors   =       0
  # mutual_inds =       0 # vccs       =       0 # vcvs        =       0
  # cccs        =       0 # ccvs       =       0 # volt_srcs   =       7
  # curr_srcs   =       2 # diodes     =       0 # bjts        =       0
  # jfets       =       0 # mosfets    =      41 # U elements  =       0
  # T elements  =       0 # W elements =       0 # B elements  =       0
  # S elements  =       0 # P elements =       0 # va device   =       0


  ******  Runtime Statistics (seconds)  ******

  analysis           time    # points   tot. iter  conv.iter
  op point           0.05           1         256
  transient          0.27      100001        1565         616 rev=        28
  readin             0.12
  errchk             0.04
  setup              0.01
  output             0.00


           total memory used                878 kbytes
           total cpu time            0.49 seconds
           total elapsed time        0.52 seconds
           job started at     23:13:08 08/31/2018
           job ended   at     23:13:08 08/31/2018


 lic: Release hspice token(s) 
