$DATA1 SOURCE='HSPICE' VERSION='D-2010.03 64-BIT'
.TITLE '* msp generated netlist file'
 up_imin          up_iavg          up_imax          lo_imin           
 lo_iavg          lo_imax          temper           alter#            
 -1.957e-04        4.032e-05        2.504e-04        3.702e-05        
  4.002e-05        4.116e-05        125.0000           1.0000         
