 ****** HSPICE -- D-2010.03 64-BIT (Feb 23 2010) linux ******                   
  Copyright (C) 2010 Synopsys, Inc. All Rights Reserved.                        
  Unpublished-rights reserved under US copyright laws.
  This program is protected by law and is subject to the 
  terms and conditions of the license agreement from Synopsys.
  Use of this program is your acceptance to be bound by the 
  license agreement. HSPICE is the trademark of Synopsys, Inc.
  Input File: /export/home/wllv/shzhang/Bagging/test_bench/test3/circuit/tmp/wor
 lic:  
 lic: FLEXlm: v8.5b 
 lic: USER:   wllv                 HOSTNAME: console 
 lic: HOSTID: 3440b5b102f4         PID:      19320 
 lic: Using FLEXlm license file: 
 lic: /export/home/wllv/mysoft/hspice/license.dat 
 lic: Checkout 1 hspice 
 lic: License/Maintenance for hspice will expire on 31-dec-2020/2007.9 
 lic: NODE LOCKED license on hostid 3440b5b102f4 
 lic:   
  **warning** (/export/home/svnhome/process/smic.40//hspice/v1p4/l0040ll_v1p4_1r.mdl:1050) Model nod33ll_ckt device geometries will not be checked against the limits set by lmin, lmax, wmin and wmax. To enable this check, add a period(.) to the model name(i.e. enable model selector).
1****** HSPICE -- D-2010.03 64-BIT (Feb 23 2010) linux ******                   
 ******  
 * msp generated netlist file

  ******  circuit name directory
 circuit number to circuit name directory
   number circuitname                     definition         multiplier
        0 main circuit
        1 xi0.                            pll_chargepump     1.00 
        2 xi0.xi40.                       pll_quench_v33     1.00 
        3 xi0.xnm31.                      nod33ll_ckt        1.00 
        4 xi0.xnm30.                      nod33ll_ckt        1.00 
        5 xi0.xpm29.                      pod33ll_ckt        1.00 
        6 xi0.xpm22.                      pod33ll_ckt        1.00 
        7 xi0.xpm11.                      pod33ll_ckt        2.00 
        8 xi0.xpm12.                      pod33ll_ckt        8.00 
        9 xi0.xpm8.                       pod33ll_ckt        8.00 
       10 xi0.xpm10.                      pod33ll_ckt        2.00 
       11 xi0.xpm3.                       pod33ll_ckt        1.00 
       12 xi0.xpm1.                       pod33ll_ckt        1.00 
       13 xi0.xpm2.                       pod33ll_ckt        1.00 
       14 xi0.xpm4.                       pod33ll_ckt        1.00 
       15 xi0.xnm5.                       nod33ll_ckt        1.00 
       16 xi0.xnm6.                       nod33ll_ckt        1.00 
       17 xi0.xnm7.                       nod33ll_ckt        1.00 
       18 xi0.xnm9.                       nod33ll_ckt        1.00 
       19 xi0.xnm14.                      nod33ll_ckt        2.00 
       20 xi0.xnm18.                      nod33ll_ckt        8.00 
       21 xi0.xnm21.                      nod33ll_ckt        1.00 
       22 xi0.xnm23.                      nod33ll_ckt        2.00 
       23 xi0.xnm15.                      nod33ll_ckt        2.00 
       24 xi0.xnm17.                      nod33ll_ckt        8.00 
       25 xi0.xnm20.                      nod33ll_ckt        1.00 
       26 xi0.xnm24.                      nod33ll_ckt        2.00 
       27 xi0.xnm33.                      nod33ll_ckt        1.00 
       28 xi0.xnm32.                      nod33ll_ckt        1.00 
       29 xi0.xnm27.                      nod33ll_ckt        1.00 
       30 xi0.xnm13.                      nod33ll_ckt        1.00 
       31 xi0.xnm25.                      nod33ll_ckt        2.00 
       32 xi0.xpm19.                      pod33ll_ckt        1.00 
       33 xi0.xnm26.                      nod33ll_ckt        1.00 
       34 xi0.xpm28.                      pod33ll_ckt        1.00 
       35 xi0.xnm34.                      nod33ll_ckt        4.00 
       36 xi0.xi40.xpm11.                 pod33ll_ckt        4.00 
       37 xi0.xi40.xpm10.                 pod33ll_ckt        4.00 
       38 xi0.xi40.xnm1.                  nod33ll_ckt        2.00 
       39 xi0.xi40.xnm0.                  nod33ll_ckt        6.00 
       40 xi0.xi40.xpm12.                 pod33ll_ckt        1.00 
       41 xi0.xi40.xpm7.                  pod33ll_ckt       10.00 
       42 xi0.xi40.xpm8.                  pod33ll_ckt        5.00 
       43 xi0.xi40.xpm9.                  pod33ll_ckt        2.00 
1****** HSPICE -- D-2010.03 64-BIT (Feb 23 2010) linux ******                   
 ******  
 * msp generated netlist file

  ******  mos   model parameters tnom=  25.000 temp=  25.000 *****
 
Model Name: nod33ll_ckt  

 BSIM4 Model (Level 54)

    MOBMOD = 0
    BINUNIT = 2
    PARAMCHK = 1
    CAPMOD = 2
    DIOMOD = 2
    RDSMOD = 1
    TRNQSMOD = 0
    ACNQSMOD = 0
    RBODYMOD = 0
    RGATEMOD = 0
    PERMOD = 1
    GEOMOD = 0
    RGEOMOD = 1
    FNOIMOD = 1
    TNOIMOD = 0
    IGCMOD = 0
    IGBMOD = 0
    STIMOD = 1
    VBFWDMOD = 0
    VERSION =    4.5 
    TOXREF = 5.63e-09 
    TOXE = 5.77e-09 
    TOXP = 5.874e-09 
    TOXM = 5.63e-09 
    DTOX = -1.036e-10 
    EPSROX =    3.9 
    CDSC =  5e-05 
    CDSCB = 2.002e-05 
    CDSCD =      0 
    CIT = 0.0007521 
    NFACTOR =  1.414 
    XJ = 1.42e-07 
    VSAT = 9.4e+04 
    A0 =      1 
    AGS = 0.3474 
    A1 =      0 
    A2 =      1 
    AT = 1.38e+04 
    KETA = -0.003203 
    NSUB =  6e+16 
    NDEP = 1.3e+17 
    NSD =  1e+20 
    NGATE = 2.27e+22 
    GAMMA1 =      0 
    GAMMA2 =      0 
    VBX =      0 
    VBM =     -3 
    XT = 1.55e-07 
    K1 = 0.6381 
    KT1 = -0.173 
    KT1L = 3.417e-09 
    KT2 = -0.03838 
    K2 = 0.00301 
    K3 = -2.907 
    K3B =      0 
    LPE0 = 5.562e-08 
    LPEB =      0 
    DVTP0 =      0 
    DVTP1 =      0 
    W0 = -9.093e-08 
    DVT0 = 0.6583 
    DVT1 = 0.1013 
    DVT2 =      0 
    DVT0W = 0.5231 
    DVT1W = 1.18e+06 
    DVT2W =  1.064 
    DROUT =   0.56 
    DSUB =    0.7 
    VTH0 = 0.6275 
    EU =   1.67 
    UA = -9.715e-10 
    UA1 = 2.558e-09 
    UB = 2.378e-18 
    UB1 = -2.418e-18 
    UC = 1.209e-10 
    UC1 = -1e-12 
    U0 = 0.03266 
    UTE = -0.9763 
    VOFF = -0.1843 
    VOFFL = 9.667e-10 
    MINV = -0.6978 
    FPROUT =      0 
    PDITS =      0 
    PDITSD =      0 
    PDITSL =      0 
    DELTA = 0.003263 
    RDSW =    200 
    RDSWMIN =      0 
    RDWMIN =      0 
    RSWMIN =      0 
    RDW =  162.8 
    RSW =  162.8 
    PRWG =      0 
    PRWB =  0.028 
    PRT =      0 
    ETA0 =  0.118 
    ETAB = -0.1213 
    PCLM =  0.348 
    PDIBLC1 = 0.02463 
    PDIBLC2 = 0.0001766 
    PDIBLCB =  0.189 
    PSCBE1 = 4.24e+08 
    PSCBE2 = 3.491e-08 
    PVAG =      1 
    WR =      1 
    DWG = 8.451e-09 
    DWB = 1.096e-13 
    XW = 9.3e-09 
    XWREF = 9.3e-09 
    XL =  4e-08 
    XLREF =  4e-08 
    B0 = 5.953e-08 
    B1 =      0 
    ALPHA0 = 3.657e-08 
    ALPHA1 =  9.581 
    AGIDL = 9.423e-09 
    BGIDL = 2.636e+09 
    CGIDL =  130.1 
    PHIN =   0.15 
    EGIDL =  0.496 
    AIGC = 0.0136 
    BIGC = 0.00171 
    CIGC =  0.075 
    AIGSD = 0.0136 
    BIGSD = 0.00171 
    CIGSD =  0.075 
    AIGBACC = 0.000949 
    BIGBACC = 0.00171 
    CIGBACC =  0.075 
    AIGBINV = 0.0111 
    BIGBINV = 0.000949 
    CIGBINV =  0.006 
    NIGC =      1 
    NIGBINV =      3 
    NIGBACC =      1 
    NTOX =      1 
    EIGBINV =    1.1 
    PIGCD =      1 
    POXEDGE =      1 
    XRCRG1 =     12 
    TNOIA =    1.5 
    TNOIB =    3.5 
    NTNOI =      1 
    XRCRG2 =      1 
    BETA0 =  22.91 
    IJTHDFWD =    0.1 
    IJTHSFWD =    0.1 
    IJTHDREV =    0.1 
    IJTHSREV =    0.1 
    XJBVD =      1 
    XJBVS =      1 
    BVD =   9.45 
    BVS =   9.45 
    VFB =     -1 
    GBMIN =  1e-12 
    RBDB =     50 
    RBPB =     50 
    RBSB =     50 
    RBPS =     50 
    RBPD =     50 
    CGSL = 3.515e-10 
    CGDL = 3.515e-10 
    CKAPPAS =    0.6 
    CKAPPAD =    0.6 
    CF = 5.607e-11 
    CLC =  1e-07 
    CLE =    0.6 
    DWC = -6.5e-08 
    DLC = 8.665e-08 
    DLCIG =      0 
    DWJ =      0 
    VFBCV =     -1 
    ACDE = 0.2864 
    MOIN =  5.099 
    NOFF =  1.954 
    VOFFCV = -0.1431 
    DMCG = 9.9e-08 
    DMCI = 1.62e-07 
    DMDG =      0 
    DMCGT =      0 
    XGW =      0 
    XGL =      0 
    RSHG =    0.1 
    NGCON =      1 
    TCJ = 0.0008075 
    TPB = 0.001579 
    TCJSW = 0.0003398 
    TPBSW = 0.0006488 
    TCJSWG = 0.0005936 
    TPBSWG = 0.0003669 
    SK0 =      0 
    SK1 =      0 
    SK2 =      0 
    SL =  2e-06 
    SW =  2e-06 
    K =      0 
    LCIT = -5.294e-11 
    LVSAT = -0.008723 
    LKT1 = 1.1e-09 
    LKT2 =  4e-09 
    LK2 = -6.36e-09 
    LVTH0 = 5.753e-09 
    LUA = 5.684e-16 
    LUA1 = 5.971e-16 
    LUB = -1.843e-27 
    LUB1 = -5.981e-25 
    LUC = 1.868e-17 
    LUC1 = -2e-17 
    LU0 = 6.35e-09 
    LUTE = -3.976e-08 
    LDELTA = 1.069e-08 
    LPCLM = 6.797e-08 
    LALPHA1 = 7.643e-07 
    LBETA0 = 2.298e-08 
    LAGIDL = 3.57e-15 
    LCGIDL = 1.53e-05 
    LNOFF = 1.3e-07 
    LVOFFCV = -1.515e-08 
    WVSAT = -0.01913 
    WAGS = 4.368e-09 
    WKT1 = -2e-09 
    WVTH0 = 4.311e-09 
    WUA1 = -1.82e-16 
    WUB = -2.145e-25 
    WUB1 = -2e-26 
    WUC = -2.829e-17 
    WU0 = -3.692e-09 
    WUTE = -3.645e-08 
    WALPHA1 = 3.099e-07 
    WAGIDL = 2.905e-14 
    PCIT = -2.632e-18 
    PVSAT = 3.03e-09 
    PAT = -5.735e-11 
    PAGS = 2.156e-13 
    PKT1 = -5.122e-16 
    PK2 = 2.241e-15 
    PK3 = 2.24e-13 
    PPE0 = 5.024e-21 
    PDVT0 = -1.376e-14 
    PVTH0 = -1.177e-14 
    PUA = 4.702e-23 
    PUA1 = -7.425e-24 
    PUB = -2.178e-31 
    PUB1 = 2.525e-31 
    PUC = -1.091e-23 
    PUC1 =  1e-23 
    PU0 = -2.383e-15 
    PUTE = 2.392e-14 
    PETA0 = -3.61e-15 
    PPCLM = 2.4e-14 
    PBETA0 = -5.44e-14 
    PAGIDL = 1.367e-20 
    TNOM =  298.1 
    CGSO = 1.425e-12 
    CGDO = 1.425e-12 
    CGBO =      0 
    XPART =      1 
    RSH =   13.2 
    JSS = 2.308e-07 
    JSWS = 1.013e-13 
    JSWGS = 5.6e-14 
    PBS = 0.5832 
    MJS = 0.2363 
    PBSWS = 0.3922 
    MJSWS = 0.2203 
    CJS = 0.001388 
    CJSWS = 8.451e-11 
    NJS = 0.9807 
    PBSWGS =  0.976 
    MJSWGS =    0.6 
    CJSWGS = 1.434e-10 
    XTIS =      3 
    JSD = 2.308e-07 
    JSWD = 1.013e-13 
    JSWGD = 5.6e-14 
    PBD = 0.5832 
    MJD = 0.2363 
    PBSWD = 0.3922 
    MJSWD = 0.2203 
    CJD = 0.001388 
    CJSWD = 8.451e-11 
    NJD = 0.9807 
    PBSWGD =  0.976 
    MJSWGD =    0.6 
    CJSWGD = 1.434e-10 
    XTID =      3 
    LMLT =      1 
    WMLT =      1 
    LINT = 3.171e-08 
    LL = 7.773e-15 
    LLC =      0 
    LLN =      1 
    LW = 3.807e-15 
    LWC =      0 
    LWN =      1 
    LWL = 1.323e-22 
    LWLC =      0 
    LMIN = 4.95e-07 
    LMAX = 0.0001 
    WINT = -2.832e-08 
    WL = -1.858e-14 
    WLC =      0 
    WLN =      1 
    WW = -6.716e-15 
    WWC =      0 
    WWN =      1 
    WWL = 2.396e-21 
    WWLC =      0 
    WMIN = 2.88e-07 
    WMAX = 0.0001 
    NOIA = 2.064e+41 
    NOIB = 7.403e+24 
    NOIC = 4.862e+07 
    EM = 3.308e+11 
    EF = 0.9576 
    AF =      1 
    KF =      0 
    TRS =      0 
    TRD =      0 
    TEMPMOD  =      0 
    LAMBDA   =      0 
    VTL      =  2e+05 m/s
    LC       =  5e-09 
    XN       =      3 
    LLAMBDA  =      0 
    LVTL     =      0 
    LXN      =      0 
    WLAMBDA  =      0 
    WVTL     =      0 
    WXN      =      0 
    PLAMBDA  =      0 
    PVTL     =      0 
    PXN      =      0 
    RNOIA    =  0.577 
    RNOIB    = 0.5164 
    SAREF(SA0) = 2.61e-07 m
    SBREF(SB0) = 2.61e-07 m
    WLOD     =      0 m
    KU0      = -5.71e-08 1/m
    KVSAT    =    0.4 
    KVTH0    = 2.48e-09 m
    TKU0     =      0 
    LLODKU0  =      1 
    WLODKU0  =      1 
    LLODVTH  =      1 
    WLODVTH  =      1 
    LKU0     = 1.325e-06 
    WKU0     =  1e-08 
    PKU0     = -5.7e-14 
    LKVTH0   = -1.301e-07 
    WKVTH0   = -1.5e-07 
    PKVTH0   = 6.3e-14 
    STK2     =      0 
    LODK2    =      1 
    STETA0   = -3.339e-09 
    LODETA0  =      1 
    LXRCRG1  =      0 
    WXRCRG1  =      0 
    PXRCRG1  =      0 
    LXRCRG2  =      0 
    WXRCRG2  =      0 
    PXRCRG2  =      0 
 

    *** UCB's BSIM4.4.0 new diode model is activated. ***
    *** UCB's Diode Model Parameters ***

    JTSS         =      0 
    JTSSWS       =      0 
    JTSSWGS      = 1.2e-18 
    JTSD         =      0 
    JTSSWD       =      0 
    JTSSWGD      = 1.2e-18 
    NJTS         =     20 
    NJTSSW       =     20 
    NJTSSWG      =     20 
    XTSS         =   0.02 
    XTSSWS       =   0.02 
    XTSSWGS      =   0.02 
    XTSD         =   0.02 
    XTSSWD       =   0.02 
    XTSSWGD      =   0.02 
    TNJTS        =      0 
    TNJTSSW      =      0 
    TNJTSSWG     =      0 
    VFBSDOFF     =      0 
    LVFBSDOFF    =      0 
    WVFBSDOFF    =      0 
    PVFBSDOFF    =      0 
    LINTNOI      = -3.905e-08 
    VTSS         =     10 
    VTSD         =     10 
    VTSSWS       =     10 
    VTSSWD       =     10 
    VTSSWGS      =     10 
    VTSSWGD      =     10 
    TTDIOMOD     =      1 
 

    *** UCB's BSIM4.5.0 new model is activated. ***
    UD         =  1e+14 
    UD1        =      0 
    UP         =      0 
    LP         =  1e-08 
    TVOFF      =  0.003 
    TVFBSDOFF  =      0 
    RBPS0      =     50 
    RBPSL      =      0 
    RBPSW      =      0 
    RBPSNF     =      0 
    RBPD0      =     50 
    RBPDL      =      0 
    RBPDW      =      0 
    RBPDNF     =      0 
    RBPBX0     =    100 
    RBPBXL     =      0 
    RBPBXW     =      0 
    RBPBXNF    =      0 
    RBPBY0     =    100 
    RBPBYL     =      0 
    RBPBYW     =      0 
    RBPBYNF    =      0 
    RBSBX0     =    100 
    RBSBY0     =    100 
    RBDBX0     =    100 
    RBDBY0     =    100 
    RBSDBXL    =      0 
    RBSDBXW    =      0 
    RBSDBXNF   =      0 
    RBSDBYL    =      0 
    RBSDBYW    =      0 
    RBSDBYNF   =      0 
    LUD        =      0 
    LUD1       =      0 
    LUP        =      0 
    LLP        =      0 
    LTVOFF     = -4.4e-11 
    LTVFBSDOFF =      0 
    WUD        =      0 
    WUD1       =      0 
    WUP        =      0 
    WLP        =      0 
    WTVOFF     =      0 
    WTVFBSDOFF =      0 
    PUD        =      0 
    PUD1       =      0 
    PUP        =      0 
    PLP        =      0 
    PTVOFF     =      0 
    PTVFBSDOFF =      0 
    WEB        =   -460 
    WEC        =   -300 
    KVTH0WE    = 0.01789 
    K2WE       =      0 
    KU0WE      = -0.01846 
    SCREF      =  1e-06 
    WPEMOD     =      1 
    LKVTH0WE   = 1.579e-09 
    LK2WE      =      0 
    LKU0WE     =      0 
    WKVTH0WE   =  1e-09 
    WK2WE      =      0 
    WKU0WE     = 4.324e-09 
    PKVTH0WE   = -4.409e-16 
    PK2WE      =      0 
    PKU0WE     = -6.528e-16 
 

 
Model Name: pod33ll_ckt  

 BSIM4 Model (Level 54)

    MOBMOD = 0
    BINUNIT = 2
    PARAMCHK = 1
    CAPMOD = 2
    DIOMOD = 2
    RDSMOD = 1
    TRNQSMOD = 0
    ACNQSMOD = 0
    RBODYMOD = 0
    RGATEMOD = 0
    PERMOD = 1
    GEOMOD = 0
    RGEOMOD = 1
    FNOIMOD = 1
    TNOIMOD = 0
    IGCMOD = 0
    IGBMOD = 0
    STIMOD = 1
    VBFWDMOD = 0
    VERSION =    4.5 
    TOXREF = 6.02e-09 
    TOXE = 6.119e-09 
    TOXP = 5.979e-09 
    TOXM = 6.119e-09 
    DTOX = 1.4e-10 
    EPSROX =    3.9 
    CDSC =      0 
    CDSCB =      0 
    CDSCD =      0 
    CIT = 0.00063 
    NFACTOR =   1.05 
    XJ = 1.37e-07 
    VSAT = 8.5e+04 
    A0 =  1.495 
    AGS =  0.275 
    A1 =      0 
    A2 =      1 
    AT =  6e+04 
    KETA = -0.002248 
    NSUB =  6e+16 
    NDEP =  1e+17 
    NSD =  1e+20 
    NGATE =  1e+21 
    GAMMA1 =      0 
    GAMMA2 =      0 
    VBX =      0 
    VBM =     -3 
    XT = 1.55e-07 
    K1 =    0.6 
    KT1 = -0.1793 
    KT1L =  2e-08 
    KT2 = -0.02903 
    K2 =  -0.05 
    K3 =      0 
    K3B =    0.7 
    LPE0 =  7e-08 
    LPEB =      0 
    DVTP0 = -1e-07 
    DVTP1 =      0 
    W0 =      0 
    DVT0 =      7 
    DVT1 =   0.36 
    DVT2 =   0.01 
    DVT0W =      0 
    DVT1W =      0 
    DVT2W =      0 
    DROUT =   0.56 
    DSUB =   0.56 
    VTH0 = -0.642 
    EU =   1.67 
    UA = 2.579e-10 
    UA1 = 1.768e-09 
    UB = 1.231e-18 
    UB1 = -3.029e-18 
    UC = -2e-11 
    UC1 = 4.849e-12 
    U0 = 0.01046 
    UTE =     -1 
    VOFF = -0.132 
    VOFFL = -1.4e-08 
    MINV =  -0.08 
    FPROUT =      0 
    PDITS =      0 
    PDITSD =      0 
    PDITSL =      0 
    DELTA =  0.004 
    RDSW =    477 
    RDSWMIN =      0 
    RDWMIN =      0 
    RSWMIN =      0 
    RDW =    270 
    RSW =    270 
    PRWG =      0 
    PRWB =      0 
    PRT =      0 
    ETA0 =   0.08 
    ETAB = -0.152 
    PCLM =  0.362 
    PDIBLC1 =      0 
    PDIBLC2 = 3.06e-05 
    PDIBLCB =      0 
    PSCBE1 = 4.24e+09 
    PSCBE2 =  1e-08 
    PVAG =      0 
    WR =      1 
    DWG =      0 
    DWB =      0 
    XW = 1.23e-08 
    XWREF = 1.23e-08 
    XL = 1.36e-08 
    XLREF = 1.36e-08 
    B0 =      0 
    B1 =      0 
    ALPHA0 = -5.285e-06 
    ALPHA1 =   15.9 
    AGIDL =  5e-10 
    BGIDL =  2e+09 
    CGIDL =    0.5 
    PHIN = 0.04597 
    EGIDL =   0.37 
    AIGC = 0.0098 
    BIGC = 0.000759 
    CIGC =   0.03 
    AIGSD = 0.0098 
    BIGSD = 0.000759 
    CIGSD =   0.03 
    AIGBACC = 0.000949 
    BIGBACC = 0.00171 
    CIGBACC =  0.075 
    AIGBINV = 0.0111 
    BIGBINV = 0.000949 
    CIGBINV =  0.006 
    NIGC =      1 
    NIGBINV =      3 
    NIGBACC =      1 
    NTOX =      1 
    EIGBINV =    1.1 
    PIGCD =      1 
    POXEDGE =      1 
    XRCRG1 =     12 
    TNOIA =    1.5 
    TNOIB =    3.5 
    NTNOI =      1 
    XRCRG2 =      1 
    BETA0 =   33.6 
    IJTHDFWD =    0.1 
    IJTHSFWD =    0.1 
    IJTHDREV =    0.1 
    IJTHSREV =    0.1 
    XJBVD =      1 
    XJBVS =      1 
    BVD =   8.55 
    BVS =   8.55 
    VFB =     -1 
    GBMIN =  1e-12 
    RBDB =     50 
    RBPB =     50 
    RBSB =     50 
    RBPS =     50 
    RBPD =     50 
    CGSL = 3.23e-10 
    CGDL = 3.23e-10 
    CKAPPAS =    0.6 
    CKAPPAD =    0.6 
    CF = 5.478e-11 
    CLC =  1e-07 
    CLE =    0.6 
    DWC = -6.5e-08 
    DLC = 7.306e-08 
    DLCIG =  5e-09 
    DWJ =      0 
    VFBCV =     -1 
    ACDE = 0.5037 
    MOIN =      8 
    NOFF =    1.4 
    VOFFCV =  -0.02 
    DMCG = 9.9e-08 
    DMCI = 1.62e-07 
    DMDG =      0 
    DMCGT =      0 
    XGW =      0 
    XGL =      0 
    RSHG =    0.1 
    NGCON =      1 
    TCJ = 0.0008479 
    TPB = 0.001659 
    TCJSW = 0.000503 
    TPBSW = 0.002829 
    TCJSWG = 0.0002 
    TPBSWG = 0.0003037 
    SK0 =      0 
    SK1 =      0 
    SK2 =      0 
    SL =  2e-06 
    SW =  2e-06 
    K =      0 
    LCIT = -2e-10 
    LVSAT = 0.005595 
    LAT =  -0.07 
    LA0 = -9e-07 
    LAGS = 2.5e-07 
    LKETA = -3.24e-09 
    LKT2 = 1.227e-09 
    LVTH0 = -1.31e-08 
    LUA = 1.616e-16 
    LUA1 = 3.45e-17 
    LUB = -1e-25 
    LUB1 =  1e-25 
    LUC = 4.705e-18 
    LU0 = 1.215e-09 
    LDELTA = 3.23e-09 
    LETA0 = 4.292e-08 
    LETAB = 1.7e-08 
    LPCLM = 1.3e-07 
    LPDIBLC2 =  6e-10 
    LALPHA0 = 8.338e-13 
    LBETA0 = -1.837e-06 
    LAGIDL = -1.4e-16 
    LNOFF =  6e-07 
    LVOFFCV = -4e-08 
    WAT =  0.023 
    WA0 =  5e-09 
    WKETA = 3.031e-09 
    WKT1 = 1.029e-08 
    WVTH0 =  2e-09 
    WUA = -6.12e-17 
    WUB = 1.996e-26 
    WUB1 = 1.94e-25 
    WU0 =  2e-10 
    WPCLM = -1e-08 
    WAGIDL =  6e-16 
    PVSAT = -2.029e-09 
    PAT =  5e-09 
    PA0 = 9.04e-14 
    PKT1 =  8e-15 
    PK2 = -1e-16 
    PDVT1 = 5.016e-15 
    PVTH0 = -1e-15 
    PUA = 4.596e-23 
    PUA1 = 3.438e-24 
    PUB = -3.305e-32 
    PUB1 =  8e-33 
    PUC = -1.25e-24 
    PUC1 = 2.2e-24 
    PU0 = -2e-16 
    PVOFF = -2.128e-15 
    PETA0 = 1.08e-14 
    PAGIDL = -4e-22 
    TNOM =  298.1 
    CGSO = 9.5e-12 
    CGDO = 9.5e-12 
    CGBO =      0 
    XPART =      1 
    RSH =     14 
    JSS = 1.593e-07 
    JSWS = 1.013e-13 
    JSWGS = 1.53e-12 
    PBS =  0.729 
    MJS = 0.3168 
    PBSWS =   1.03 
    MJSWS = 0.1784 
    CJS = 0.001294 
    CJSWS = 6.083e-11 
    NJS = 0.9839 
    PBSWGS = 0.8317 
    MJSWGS =  0.465 
    CJSWGS = 1.698e-10 
    XTIS =      3 
    JSD = 1.593e-07 
    JSWD = 1.013e-13 
    JSWGD = 1.53e-12 
    PBD =  0.729 
    MJD = 0.3168 
    PBSWD =   1.03 
    MJSWD = 0.1784 
    CJD = 0.001294 
    CJSWD = 6.083e-11 
    NJD = 0.9839 
    PBSWGD = 0.8317 
    MJSWGD =  0.465 
    CJSWGD = 1.698e-10 
    XTID =      3 
    LMLT =      1 
    WMLT =      1 
    LINT =  4e-09 
    LL = -5e-15 
    LLC =      0 
    LLN =    0.9 
    LW =      0 
    LWC =      0 
    LWN =      1 
    LWL =      0 
    LWLC =      0 
    LMIN = 3.96e-07 
    LMAX = 0.0001 
    WINT = -2e-08 
    WL = -1.1e-14 
    WLC =      0 
    WLN =   0.98 
    WW =  9e-15 
    WWC =      0 
    WWN =   0.96 
    WWL =      0 
    WWLC =      0 
    WMIN = 2.88e-07 
    WMAX = 0.0001 
    NOIA = 5.223e+41 
    NOIB = 1.399e+26 
    NOIC =  6e+09 
    EM =  2e+09 
    EF =   1.21 
    AF =      1 
    KF =      0 
    TRS =      0 
    TRD =      0 
    TEMPMOD  =      0 
    LAMBDA   =      0 
    VTL      =  2e+05 m/s
    LC       =  5e-09 
    XN       =      3 
    LLAMBDA  =      0 
    LVTL     =      0 
    LXN      =      0 
    WLAMBDA  =      0 
    WVTL     =      0 
    WXN      =      0 
    PLAMBDA  =      0 
    PVTL     =      0 
    PXN      =      0 
    RNOIA    =  0.577 
    RNOIB    = 0.5164 
    SAREF(SA0) = 2.61e-07 m
    SBREF(SB0) = 2.61e-07 m
    WLOD     =      0 m
    KU0      =  3e-09 1/m
    KVSAT    =      1 
    KVTH0    =  4e-09 m
    TKU0     =      0 
    LLODKU0  =      1 
    WLODKU0  =      1 
    LLODVTH  =      1 
    WLODVTH  =      1 
    LKU0     =  2e-06 
    WKU0     =      0 
    PKU0     =      0 
    LKVTH0   =  7e-07 
    WKVTH0   =  3e-07 
    PKVTH0   =  2e-13 
    STK2     =      0 
    LODK2    =      1 
    STETA0   =      0 
    LODETA0  =      1 
    LXRCRG1  =      0 
    WXRCRG1  =      0 
    PXRCRG1  =      0 
    LXRCRG2  =      0 
    WXRCRG2  =      0 
    PXRCRG2  =      0 
 

    *** UCB's BSIM4.4.0 new diode model is activated. ***
    *** UCB's Diode Model Parameters ***

    JTSS         =      0 
    JTSSWS       =      0 
    JTSSWGS      =  7e-10 
    JTSD         =      0 
    JTSSWD       =      0 
    JTSSWGD      =  7e-10 
    NJTS         =     20 
    NJTSSW       =     20 
    NJTSSWG      =     20 
    XTSS         =   0.02 
    XTSSWS       =   0.02 
    XTSSWGS      =   0.02 
    XTSD         =   0.02 
    XTSSWD       =   0.02 
    XTSSWGD      =   0.02 
    TNJTS        =      0 
    TNJTSSW      =      0 
    TNJTSSWG     =      0 
    VFBSDOFF     =      0 
    LVFBSDOFF    =      0 
    WVFBSDOFF    =      0 
    PVFBSDOFF    =      0 
    LINTNOI      = -1.8e-08 
    VTSS         =     10 
    VTSD         =     10 
    VTSSWS       =     10 
    VTSSWD       =     10 
    VTSSWGS      =     10 
    VTSSWGD      =     10 
    TTDIOMOD     =      1 
 

    *** UCB's BSIM4.5.0 new model is activated. ***
    UD         =  1e+14 
    UD1        =      0 
    UP         =      0 
    LP         =  1e-08 
    TVOFF      =  0.005 
    TVFBSDOFF  =      0 
    RBPS0      =     50 
    RBPSL      =      0 
    RBPSW      =      0 
    RBPSNF     =      0 
    RBPD0      =     50 
    RBPDL      =      0 
    RBPDW      =      0 
    RBPDNF     =      0 
    RBPBX0     =    100 
    RBPBXL     =      0 
    RBPBXW     =      0 
    RBPBXNF    =      0 
    RBPBY0     =    100 
    RBPBYL     =      0 
    RBPBYW     =      0 
    RBPBYNF    =      0 
    RBSBX0     =    100 
    RBSBY0     =    100 
    RBDBX0     =    100 
    RBDBY0     =    100 
    RBSDBXL    =      0 
    RBSDBXW    =      0 
    RBSDBXNF   =      0 
    RBSDBYL    =      0 
    RBSDBYW    =      0 
    RBSDBYNF   =      0 
    LUD        =      0 
    LUD1       =      0 
    LUP        =      0 
    LLP        =      0 
    LTVOFF     =      0 
    LTVFBSDOFF =      0 
    WUD        =      0 
    WUD1       =      0 
    WUP        =      0 
    WLP        =      0 
    WTVOFF     = 6.4e-10 
    WTVFBSDOFF =      0 
    PUD        =      0 
    PUD1       =      0 
    PUP        =      0 
    PLP        =      0 
    PTVOFF     =      0 
    PTVFBSDOFF =      0 
    WEB        =     10 
    WEC        =      0 
    KVTH0WE    = -0.008 
    K2WE       =      0 
    KU0WE      = -0.004 
    SCREF      =  1e-06 
    WPEMOD     =      1 
    LKVTH0WE   = -6e-10 
    LK2WE      =      0 
    LKU0WE     =      0 
    WKVTH0WE   =  3e-10 
    WK2WE      =      0 
    WKU0WE     = -1e-10 
    PKVTH0WE   =  1e-16 
    PK2WE      =      0 
    PKU0WE     = -8e-17 
 

 
Model Name: pod33ll_ckt  

 BSIM4 Model (Level 54)

    MOBMOD = 0
    BINUNIT = 2
    PARAMCHK = 1
    CAPMOD = 2
    DIOMOD = 2
    RDSMOD = 1
    TRNQSMOD = 0
    ACNQSMOD = 0
    RBODYMOD = 0
    RGATEMOD = 0
    PERMOD = 1
    GEOMOD = 0
    RGEOMOD = 1
    FNOIMOD = 1
    TNOIMOD = 0
    IGCMOD = 0
    IGBMOD = 0
    STIMOD = 1
    VBFWDMOD = 0
    VERSION =    4.5 
    TOXREF = 6.02e-09 
    TOXE = 6.119e-09 
    TOXP = 5.979e-09 
    TOXM = 6.119e-09 
    DTOX = 1.4e-10 
    EPSROX =    3.9 
    CDSC =      0 
    CDSCB =      0 
    CDSCD =      0 
    CIT = 0.00063 
    NFACTOR =   1.05 
    XJ = 1.37e-07 
    VSAT = 8.5e+04 
    A0 =  1.495 
    AGS =  0.275 
    A1 =      0 
    A2 =      1 
    AT =  6e+04 
    KETA = -0.002248 
    NSUB =  6e+16 
    NDEP =  1e+17 
    NSD =  1e+20 
    NGATE =  1e+21 
    GAMMA1 =      0 
    GAMMA2 =      0 
    VBX =      0 
    VBM =     -3 
    XT = 1.55e-07 
    K1 =    0.6 
    KT1 = -0.1793 
    KT1L =  2e-08 
    KT2 = -0.02903 
    K2 =  -0.05 
    K3 =      0 
    K3B =    0.7 
    LPE0 =  7e-08 
    LPEB =      0 
    DVTP0 = -1e-07 
    DVTP1 =      0 
    W0 =      0 
    DVT0 =      7 
    DVT1 =   0.36 
    DVT2 =   0.01 
    DVT0W =      0 
    DVT1W =      0 
    DVT2W =      0 
    DROUT =   0.56 
    DSUB =   0.56 
    VTH0 = -0.642 
    EU =   1.67 
    UA = 2.579e-10 
    UA1 = 1.768e-09 
    UB = 1.231e-18 
    UB1 = -3.029e-18 
    UC = -2e-11 
    UC1 = 4.849e-12 
    U0 = 0.01046 
    UTE =     -1 
    VOFF = -0.132 
    VOFFL = -1.4e-08 
    MINV =  -0.08 
    FPROUT =      0 
    PDITS =      0 
    PDITSD =      0 
    PDITSL =      0 
    DELTA =  0.004 
    RDSW =    477 
    RDSWMIN =      0 
    RDWMIN =      0 
    RSWMIN =      0 
    RDW =    270 
    RSW =    270 
    PRWG =      0 
    PRWB =      0 
    PRT =      0 
    ETA0 =   0.08 
    ETAB = -0.152 
    PCLM =  0.362 
    PDIBLC1 =      0 
    PDIBLC2 = 3.06e-05 
    PDIBLCB =      0 
    PSCBE1 = 4.24e+09 
    PSCBE2 =  1e-08 
    PVAG =      0 
    WR =      1 
    DWG =      0 
    DWB =      0 
    XW = 1.23e-08 
    XWREF = 1.23e-08 
    XL = 1.36e-08 
    XLREF = 1.36e-08 
    B0 =      0 
    B1 =      0 
    ALPHA0 = -5.285e-06 
    ALPHA1 =   15.9 
    AGIDL =  5e-10 
    BGIDL =  2e+09 
    CGIDL =    0.5 
    PHIN = 0.04597 
    EGIDL =   0.37 
    AIGC = 0.0098 
    BIGC = 0.000759 
    CIGC =   0.03 
    AIGSD = 0.0098 
    BIGSD = 0.000759 
    CIGSD =   0.03 
    AIGBACC = 0.000949 
    BIGBACC = 0.00171 
    CIGBACC =  0.075 
    AIGBINV = 0.0111 
    BIGBINV = 0.000949 
    CIGBINV =  0.006 
    NIGC =      1 
    NIGBINV =      3 
    NIGBACC =      1 
    NTOX =      1 
    EIGBINV =    1.1 
    PIGCD =      1 
    POXEDGE =      1 
    XRCRG1 =     12 
    TNOIA =    1.5 
    TNOIB =    3.5 
    NTNOI =      1 
    XRCRG2 =      1 
    BETA0 =   33.6 
    IJTHDFWD =    0.1 
    IJTHSFWD =    0.1 
    IJTHDREV =    0.1 
    IJTHSREV =    0.1 
    XJBVD =      1 
    XJBVS =      1 
    BVD =   8.55 
    BVS =   8.55 
    VFB =     -1 
    GBMIN =  1e-12 
    RBDB =     50 
    RBPB =     50 
    RBSB =     50 
    RBPS =     50 
    RBPD =     50 
    CGSL = 3.23e-10 
    CGDL = 3.23e-10 
    CKAPPAS =    0.6 
    CKAPPAD =    0.6 
    CF = 5.478e-11 
    CLC =  1e-07 
    CLE =    0.6 
    DWC = -6.5e-08 
    DLC = 7.306e-08 
    DLCIG =  5e-09 
    DWJ =      0 
    VFBCV =     -1 
    ACDE = 0.5037 
    MOIN =      8 
    NOFF =    1.4 
    VOFFCV =  -0.02 
    DMCG = 9.9e-08 
    DMCI = 1.62e-07 
    DMDG =      0 
    DMCGT =      0 
    XGW =      0 
    XGL =      0 
    RSHG =    0.1 
    NGCON =      1 
    TCJ = 0.0008479 
    TPB = 0.001659 
    TCJSW = 0.000503 
    TPBSW = 0.002829 
    TCJSWG = 0.0002 
    TPBSWG = 0.0003037 
    SK0 =      0 
    SK1 =      0 
    SK2 =      0 
    SL =  2e-06 
    SW =  2e-06 
    K =      0 
    LCIT = -2e-10 
    LVSAT = 0.005595 
    LAT =  -0.07 
    LA0 = -9e-07 
    LAGS = 2.5e-07 
    LKETA = -3.24e-09 
    LKT2 = 1.227e-09 
    LVTH0 = -1.31e-08 
    LUA = 1.616e-16 
    LUA1 = 3.45e-17 
    LUB = -1e-25 
    LUB1 =  1e-25 
    LUC = 4.705e-18 
    LU0 = 1.215e-09 
    LDELTA = 3.23e-09 
    LETA0 = 4.292e-08 
    LETAB = 1.7e-08 
    LPCLM = 1.3e-07 
    LPDIBLC2 =  6e-10 
    LALPHA0 = 8.338e-13 
    LBETA0 = -1.837e-06 
    LAGIDL = -1.4e-16 
    LNOFF =  6e-07 
    LVOFFCV = -4e-08 
    WAT =  0.023 
    WA0 =  5e-09 
    WKETA = 3.031e-09 
    WKT1 = 1.029e-08 
    WVTH0 =  2e-09 
    WUA = -6.12e-17 
    WUB = 1.996e-26 
    WUB1 = 1.94e-25 
    WU0 =  2e-10 
    WPCLM = -1e-08 
    WAGIDL =  6e-16 
    PVSAT = -2.029e-09 
    PAT =  5e-09 
    PA0 = 9.04e-14 
    PKT1 =  8e-15 
    PK2 = -1e-16 
    PDVT1 = 5.016e-15 
    PVTH0 = -1e-15 
    PUA = 4.596e-23 
    PUA1 = 3.438e-24 
    PUB = -3.305e-32 
    PUB1 =  8e-33 
    PUC = -1.25e-24 
    PUC1 = 2.2e-24 
    PU0 = -2e-16 
    PVOFF = -2.128e-15 
    PETA0 = 1.08e-14 
    PAGIDL = -4e-22 
    TNOM =  298.1 
    CGSO = 9.5e-12 
    CGDO = 9.5e-12 
    CGBO =      0 
    XPART =      1 
    RSH =     14 
    JSS = 1.593e-07 
    JSWS = 1.013e-13 
    JSWGS = 1.53e-12 
    PBS =  0.729 
    MJS = 0.3168 
    PBSWS =   1.03 
    MJSWS = 0.1784 
    CJS = 0.001294 
    CJSWS = 6.083e-11 
    NJS = 0.9839 
    PBSWGS = 0.8317 
    MJSWGS =  0.465 
    CJSWGS = 1.698e-10 
    XTIS =      3 
    JSD = 1.593e-07 
    JSWD = 1.013e-13 
    JSWGD = 1.53e-12 
    PBD =  0.729 
    MJD = 0.3168 
    PBSWD =   1.03 
    MJSWD = 0.1784 
    CJD = 0.001294 
    CJSWD = 6.083e-11 
    NJD = 0.9839 
    PBSWGD = 0.8317 
    MJSWGD =  0.465 
    CJSWGD = 1.698e-10 
    XTID =      3 
    LMLT =      1 
    WMLT =      1 
    LINT =  4e-09 
    LL = -5e-15 
    LLC =      0 
    LLN =    0.9 
    LW =      0 
    LWC =      0 
    LWN =      1 
    LWL =      0 
    LWLC =      0 
    LMIN = 3.96e-07 
    LMAX = 0.0001 
    WINT = -2e-08 
    WL = -1.1e-14 
    WLC =      0 
    WLN =   0.98 
    WW =  9e-15 
    WWC =      0 
    WWN =   0.96 
    WWL =      0 
    WWLC =      0 
    WMIN = 2.88e-07 
    WMAX = 0.0001 
    NOIA = 5.223e+41 
    NOIB = 1.399e+26 
    NOIC =  6e+09 
    EM =  2e+09 
    EF =   1.21 
    AF =      1 
    KF =      0 
    TRS =      0 
    TRD =      0 
    TEMPMOD  =      0 
    LAMBDA   =      0 
    VTL      =  2e+05 m/s
    LC       =  5e-09 
    XN       =      3 
    LLAMBDA  =      0 
    LVTL     =      0 
    LXN      =      0 
    WLAMBDA  =      0 
    WVTL     =      0 
    WXN      =      0 
    PLAMBDA  =      0 
    PVTL     =      0 
    PXN      =      0 
    RNOIA    =  0.577 
    RNOIB    = 0.5164 
    SAREF(SA0) = 2.61e-07 m
    SBREF(SB0) = 2.61e-07 m
    WLOD     =      0 m
    KU0      =  3e-09 1/m
    KVSAT    =      1 
    KVTH0    =  4e-09 m
    TKU0     =      0 
    LLODKU0  =      1 
    WLODKU0  =      1 
    LLODVTH  =      1 
    WLODVTH  =      1 
    LKU0     =  2e-06 
    WKU0     =      0 
    PKU0     =      0 
    LKVTH0   =  7e-07 
    WKVTH0   =  3e-07 
    PKVTH0   =  2e-13 
    STK2     =      0 
    LODK2    =      1 
    STETA0   =      0 
    LODETA0  =      1 
    LXRCRG1  =      0 
    WXRCRG1  =      0 
    PXRCRG1  =      0 
    LXRCRG2  =      0 
    WXRCRG2  =      0 
    PXRCRG2  =      0 
 

    *** UCB's BSIM4.4.0 new diode model is activated. ***
    *** UCB's Diode Model Parameters ***

    JTSS         =      0 
    JTSSWS       =      0 
    JTSSWGS      =  7e-10 
    JTSD         =      0 
    JTSSWD       =      0 
    JTSSWGD      =  7e-10 
    NJTS         =     20 
    NJTSSW       =     20 
    NJTSSWG      =     20 
    XTSS         =   0.02 
    XTSSWS       =   0.02 
    XTSSWGS      =   0.02 
    XTSD         =   0.02 
    XTSSWD       =   0.02 
    XTSSWGD      =   0.02 
    TNJTS        =      0 
    TNJTSSW      =      0 
    TNJTSSWG     =      0 
    VFBSDOFF     =      0 
    LVFBSDOFF    =      0 
    WVFBSDOFF    =      0 
    PVFBSDOFF    =      0 
    LINTNOI      = -1.8e-08 
    VTSS         =     10 
    VTSD         =     10 
    VTSSWS       =     10 
    VTSSWD       =     10 
    VTSSWGS      =     10 
    VTSSWGD      =     10 
    TTDIOMOD     =      1 
 

    *** UCB's BSIM4.5.0 new model is activated. ***
    UD         =  1e+14 
    UD1        =      0 
    UP         =      0 
    LP         =  1e-08 
    TVOFF      =  0.005 
    TVFBSDOFF  =      0 
    RBPS0      =     50 
    RBPSL      =      0 
    RBPSW      =      0 
    RBPSNF     =      0 
    RBPD0      =     50 
    RBPDL      =      0 
    RBPDW      =      0 
    RBPDNF     =      0 
    RBPBX0     =    100 
    RBPBXL     =      0 
    RBPBXW     =      0 
    RBPBXNF    =      0 
    RBPBY0     =    100 
    RBPBYL     =      0 
    RBPBYW     =      0 
    RBPBYNF    =      0 
    RBSBX0     =    100 
    RBSBY0     =    100 
    RBDBX0     =    100 
    RBDBY0     =    100 
    RBSDBXL    =      0 
    RBSDBXW    =      0 
    RBSDBXNF   =      0 
    RBSDBYL    =      0 
    RBSDBYW    =      0 
    RBSDBYNF   =      0 
    LUD        =      0 
    LUD1       =      0 
    LUP        =      0 
    LLP        =      0 
    LTVOFF     =      0 
    LTVFBSDOFF =      0 
    WUD        =      0 
    WUD1       =      0 
    WUP        =      0 
    WLP        =      0 
    WTVOFF     = 6.4e-10 
    WTVFBSDOFF =      0 
    PUD        =      0 
    PUD1       =      0 
    PUP        =      0 
    PLP        =      0 
    PTVOFF     =      0 
    PTVFBSDOFF =      0 
    WEB        =     10 
    WEC        =      0 
    KVTH0WE    = -0.008 
    K2WE       =      0 
    KU0WE      = -0.004 
    SCREF      =  1e-06 
    WPEMOD     =      1 
    LKVTH0WE   = -6e-10 
    LK2WE      =      0 
    LKU0WE     =      0 
    WKVTH0WE   =  3e-10 
    WK2WE      =      0 
    WKU0WE     = -1e-10 
    PKVTH0WE   =  1e-16 
    PK2WE      =      0 
    PKU0WE     = -8e-17 
 

 
Model Name: pod33ll_ckt  

 BSIM4 Model (Level 54)

    MOBMOD = 0
    BINUNIT = 2
    PARAMCHK = 1
    CAPMOD = 2
    DIOMOD = 2
    RDSMOD = 1
    TRNQSMOD = 0
    ACNQSMOD = 0
    RBODYMOD = 0
    RGATEMOD = 0
    PERMOD = 1
    GEOMOD = 0
    RGEOMOD = 1
    FNOIMOD = 1
    TNOIMOD = 0
    IGCMOD = 0
    IGBMOD = 0
    STIMOD = 1
    VBFWDMOD = 0
    VERSION =    4.5 
    TOXREF = 6.02e-09 
    TOXE = 6.119e-09 
    TOXP = 5.979e-09 
    TOXM = 6.119e-09 
    DTOX = 1.4e-10 
    EPSROX =    3.9 
    CDSC =      0 
    CDSCB =      0 
    CDSCD =      0 
    CIT = 0.00063 
    NFACTOR =   1.05 
    XJ = 1.37e-07 
    VSAT = 8.5e+04 
    A0 =  1.495 
    AGS =  0.275 
    A1 =      0 
    A2 =      1 
    AT =  6e+04 
    KETA = -0.002248 
    NSUB =  6e+16 
    NDEP =  1e+17 
    NSD =  1e+20 
    NGATE =  1e+21 
    GAMMA1 =      0 
    GAMMA2 =      0 
    VBX =      0 
    VBM =     -3 
    XT = 1.55e-07 
    K1 =    0.6 
    KT1 = -0.1793 
    KT1L =  2e-08 
    KT2 = -0.02903 
    K2 =  -0.05 
    K3 =      0 
    K3B =    0.7 
    LPE0 =  7e-08 
    LPEB =      0 
    DVTP0 = -1e-07 
    DVTP1 =      0 
    W0 =      0 
    DVT0 =      7 
    DVT1 =   0.36 
    DVT2 =   0.01 
    DVT0W =      0 
    DVT1W =      0 
    DVT2W =      0 
    DROUT =   0.56 
    DSUB =   0.56 
    VTH0 = -0.642 
    EU =   1.67 
    UA = 2.579e-10 
    UA1 = 1.768e-09 
    UB = 1.231e-18 
    UB1 = -3.029e-18 
    UC = -2e-11 
    UC1 = 4.849e-12 
    U0 = 0.01046 
    UTE =     -1 
    VOFF = -0.132 
    VOFFL = -1.4e-08 
    MINV =  -0.08 
    FPROUT =      0 
    PDITS =      0 
    PDITSD =      0 
    PDITSL =      0 
    DELTA =  0.004 
    RDSW =    477 
    RDSWMIN =      0 
    RDWMIN =      0 
    RSWMIN =      0 
    RDW =    270 
    RSW =    270 
    PRWG =      0 
    PRWB =      0 
    PRT =      0 
    ETA0 =   0.08 
    ETAB = -0.152 
    PCLM =  0.362 
    PDIBLC1 =      0 
    PDIBLC2 = 3.06e-05 
    PDIBLCB =      0 
    PSCBE1 = 4.24e+09 
    PSCBE2 =  1e-08 
    PVAG =      0 
    WR =      1 
    DWG =      0 
    DWB =      0 
    XW = 1.23e-08 
    XWREF = 1.23e-08 
    XL = 1.36e-08 
    XLREF = 1.36e-08 
    B0 =      0 
    B1 =      0 
    ALPHA0 = -5.285e-06 
    ALPHA1 =   15.9 
    AGIDL =  5e-10 
    BGIDL =  2e+09 
    CGIDL =    0.5 
    PHIN = 0.04597 
    EGIDL =   0.37 
    AIGC = 0.0098 
    BIGC = 0.000759 
    CIGC =   0.03 
    AIGSD = 0.0098 
    BIGSD = 0.000759 
    CIGSD =   0.03 
    AIGBACC = 0.000949 
    BIGBACC = 0.00171 
    CIGBACC =  0.075 
    AIGBINV = 0.0111 
    BIGBINV = 0.000949 
    CIGBINV =  0.006 
    NIGC =      1 
    NIGBINV =      3 
    NIGBACC =      1 
    NTOX =      1 
    EIGBINV =    1.1 
    PIGCD =      1 
    POXEDGE =      1 
    XRCRG1 =     12 
    TNOIA =    1.5 
    TNOIB =    3.5 
    NTNOI =      1 
    XRCRG2 =      1 
    BETA0 =   33.6 
    IJTHDFWD =    0.1 
    IJTHSFWD =    0.1 
    IJTHDREV =    0.1 
    IJTHSREV =    0.1 
    XJBVD =      1 
    XJBVS =      1 
    BVD =   8.55 
    BVS =   8.55 
    VFB =     -1 
    GBMIN =  1e-12 
    RBDB =     50 
    RBPB =     50 
    RBSB =     50 
    RBPS =     50 
    RBPD =     50 
    CGSL = 3.23e-10 
    CGDL = 3.23e-10 
    CKAPPAS =    0.6 
    CKAPPAD =    0.6 
    CF = 5.478e-11 
    CLC =  1e-07 
    CLE =    0.6 
    DWC = -6.5e-08 
    DLC = 7.306e-08 
    DLCIG =  5e-09 
    DWJ =      0 
    VFBCV =     -1 
    ACDE = 0.5037 
    MOIN =      8 
    NOFF =    1.4 
    VOFFCV =  -0.02 
    DMCG = 9.9e-08 
    DMCI = 1.62e-07 
    DMDG =      0 
    DMCGT =      0 
    XGW =      0 
    XGL =      0 
    RSHG =    0.1 
    NGCON =      1 
    TCJ = 0.0008479 
    TPB = 0.001659 
    TCJSW = 0.000503 
    TPBSW = 0.002829 
    TCJSWG = 0.0002 
    TPBSWG = 0.0003037 
    SK0 =      0 
    SK1 =      0 
    SK2 =      0 
    SL =  2e-06 
    SW =  2e-06 
    K =      0 
    LCIT = -2e-10 
    LVSAT = 0.005595 
    LAT =  -0.07 
    LA0 = -9e-07 
    LAGS = 2.5e-07 
    LKETA = -3.24e-09 
    LKT2 = 1.227e-09 
    LVTH0 = -1.31e-08 
    LUA = 1.616e-16 
    LUA1 = 3.45e-17 
    LUB = -1e-25 
    LUB1 =  1e-25 
    LUC = 4.705e-18 
    LU0 = 1.215e-09 
    LDELTA = 3.23e-09 
    LETA0 = 4.292e-08 
    LETAB = 1.7e-08 
    LPCLM = 1.3e-07 
    LPDIBLC2 =  6e-10 
    LALPHA0 = 8.338e-13 
    LBETA0 = -1.837e-06 
    LAGIDL = -1.4e-16 
    LNOFF =  6e-07 
    LVOFFCV = -4e-08 
    WAT =  0.023 
    WA0 =  5e-09 
    WKETA = 3.031e-09 
    WKT1 = 1.029e-08 
    WVTH0 =  2e-09 
    WUA = -6.12e-17 
    WUB = 1.996e-26 
    WUB1 = 1.94e-25 
    WU0 =  2e-10 
    WPCLM = -1e-08 
    WAGIDL =  6e-16 
    PVSAT = -2.029e-09 
    PAT =  5e-09 
    PA0 = 9.04e-14 
    PKT1 =  8e-15 
    PK2 = -1e-16 
    PDVT1 = 5.016e-15 
    PVTH0 = -1e-15 
    PUA = 4.596e-23 
    PUA1 = 3.438e-24 
    PUB = -3.305e-32 
    PUB1 =  8e-33 
    PUC = -1.25e-24 
    PUC1 = 2.2e-24 
    PU0 = -2e-16 
    PVOFF = -2.128e-15 
    PETA0 = 1.08e-14 
    PAGIDL = -4e-22 
    TNOM =  298.1 
    CGSO = 9.5e-12 
    CGDO = 9.5e-12 
    CGBO =      0 
    XPART =      1 
    RSH =     14 
    JSS = 1.593e-07 
    JSWS = 1.013e-13 
    JSWGS = 1.53e-12 
    PBS =  0.729 
    MJS = 0.3168 
    PBSWS =   1.03 
    MJSWS = 0.1784 
    CJS = 0.001294 
    CJSWS = 6.083e-11 
    NJS = 0.9839 
    PBSWGS = 0.8317 
    MJSWGS =  0.465 
    CJSWGS = 1.698e-10 
    XTIS =      3 
    JSD = 1.593e-07 
    JSWD = 1.013e-13 
    JSWGD = 1.53e-12 
    PBD =  0.729 
    MJD = 0.3168 
    PBSWD =   1.03 
    MJSWD = 0.1784 
    CJD = 0.001294 
    CJSWD = 6.083e-11 
    NJD = 0.9839 
    PBSWGD = 0.8317 
    MJSWGD =  0.465 
    CJSWGD = 1.698e-10 
    XTID =      3 
    LMLT =      1 
    WMLT =      1 
    LINT =  4e-09 
    LL = -5e-15 
    LLC =      0 
    LLN =    0.9 
    LW =      0 
    LWC =      0 
    LWN =      1 
    LWL =      0 
    LWLC =      0 
    LMIN = 3.96e-07 
    LMAX = 0.0001 
    WINT = -2e-08 
    WL = -1.1e-14 
    WLC =      0 
    WLN =   0.98 
    WW =  9e-15 
    WWC =      0 
    WWN =   0.96 
    WWL =      0 
    WWLC =      0 
    WMIN = 2.88e-07 
    WMAX = 0.0001 
    NOIA = 5.223e+41 
    NOIB = 1.399e+26 
    NOIC =  6e+09 
    EM =  2e+09 
    EF =   1.21 
    AF =      1 
    KF =      0 
    TRS =      0 
    TRD =      0 
    TEMPMOD  =      0 
    LAMBDA   =      0 
    VTL      =  2e+05 m/s
    LC       =  5e-09 
    XN       =      3 
    LLAMBDA  =      0 
    LVTL     =      0 
    LXN      =      0 
    WLAMBDA  =      0 
    WVTL     =      0 
    WXN      =      0 
    PLAMBDA  =      0 
    PVTL     =      0 
    PXN      =      0 
    RNOIA    =  0.577 
    RNOIB    = 0.5164 
    SAREF(SA0) = 2.61e-07 m
    SBREF(SB0) = 2.61e-07 m
    WLOD     =      0 m
    KU0      =  3e-09 1/m
    KVSAT    =      1 
    KVTH0    =  4e-09 m
    TKU0     =      0 
    LLODKU0  =      1 
    WLODKU0  =      1 
    LLODVTH  =      1 
    WLODVTH  =      1 
    LKU0     =  2e-06 
    WKU0     =      0 
    PKU0     =      0 
    LKVTH0   =  7e-07 
    WKVTH0   =  3e-07 
    PKVTH0   =  2e-13 
    STK2     =      0 
    LODK2    =      1 
    STETA0   =      0 
    LODETA0  =      1 
    LXRCRG1  =      0 
    WXRCRG1  =      0 
    PXRCRG1  =      0 
    LXRCRG2  =      0 
    WXRCRG2  =      0 
    PXRCRG2  =      0 
 

    *** UCB's BSIM4.4.0 new diode model is activated. ***
    *** UCB's Diode Model Parameters ***

    JTSS         =      0 
    JTSSWS       =      0 
    JTSSWGS      =  7e-10 
    JTSD         =      0 
    JTSSWD       =      0 
    JTSSWGD      =  7e-10 
    NJTS         =     20 
    NJTSSW       =     20 
    NJTSSWG      =     20 
    XTSS         =   0.02 
    XTSSWS       =   0.02 
    XTSSWGS      =   0.02 
    XTSD         =   0.02 
    XTSSWD       =   0.02 
    XTSSWGD      =   0.02 
    TNJTS        =      0 
    TNJTSSW      =      0 
    TNJTSSWG     =      0 
    VFBSDOFF     =      0 
    LVFBSDOFF    =      0 
    WVFBSDOFF    =      0 
    PVFBSDOFF    =      0 
    LINTNOI      = -1.8e-08 
    VTSS         =     10 
    VTSD         =     10 
    VTSSWS       =     10 
    VTSSWD       =     10 
    VTSSWGS      =     10 
    VTSSWGD      =     10 
    TTDIOMOD     =      1 
 

    *** UCB's BSIM4.5.0 new model is activated. ***
    UD         =  1e+14 
    UD1        =      0 
    UP         =      0 
    LP         =  1e-08 
    TVOFF      =  0.005 
    TVFBSDOFF  =      0 
    RBPS0      =     50 
    RBPSL      =      0 
    RBPSW      =      0 
    RBPSNF     =      0 
    RBPD0      =     50 
    RBPDL      =      0 
    RBPDW      =      0 
    RBPDNF     =      0 
    RBPBX0     =    100 
    RBPBXL     =      0 
    RBPBXW     =      0 
    RBPBXNF    =      0 
    RBPBY0     =    100 
    RBPBYL     =      0 
    RBPBYW     =      0 
    RBPBYNF    =      0 
    RBSBX0     =    100 
    RBSBY0     =    100 
    RBDBX0     =    100 
    RBDBY0     =    100 
    RBSDBXL    =      0 
    RBSDBXW    =      0 
    RBSDBXNF   =      0 
    RBSDBYL    =      0 
    RBSDBYW    =      0 
    RBSDBYNF   =      0 
    LUD        =      0 
    LUD1       =      0 
    LUP        =      0 
    LLP        =      0 
    LTVOFF     =      0 
    LTVFBSDOFF =      0 
    WUD        =      0 
    WUD1       =      0 
    WUP        =      0 
    WLP        =      0 
    WTVOFF     = 6.4e-10 
    WTVFBSDOFF =      0 
    PUD        =      0 
    PUD1       =      0 
    PUP        =      0 
    PLP        =      0 
    PTVOFF     =      0 
    PTVFBSDOFF =      0 
    WEB        =     10 
    WEC        =      0 
    KVTH0WE    = -0.008 
    K2WE       =      0 
    KU0WE      = -0.004 
    SCREF      =  1e-06 
    WPEMOD     =      1 
    LKVTH0WE   = -6e-10 
    LK2WE      =      0 
    LKU0WE     =      0 
    WKVTH0WE   =  3e-10 
    WK2WE      =      0 
    WKU0WE     = -1e-10 
    PKVTH0WE   =  1e-16 
    PK2WE      =      0 
    PKU0WE     = -8e-17 
 

 
Model Name: pod33ll_ckt  

 BSIM4 Model (Level 54)

    MOBMOD = 0
    BINUNIT = 2
    PARAMCHK = 1
    CAPMOD = 2
    DIOMOD = 2
    RDSMOD = 1
    TRNQSMOD = 0
    ACNQSMOD = 0
    RBODYMOD = 0
    RGATEMOD = 0
    PERMOD = 1
    GEOMOD = 0
    RGEOMOD = 1
    FNOIMOD = 1
    TNOIMOD = 0
    IGCMOD = 0
    IGBMOD = 0
    STIMOD = 1
    VBFWDMOD = 0
    VERSION =    4.5 
    TOXREF = 6.02e-09 
    TOXE = 6.119e-09 
    TOXP = 5.979e-09 
    TOXM = 6.119e-09 
    DTOX = 1.4e-10 
    EPSROX =    3.9 
    CDSC =      0 
    CDSCB =      0 
    CDSCD =      0 
    CIT = 0.00063 
    NFACTOR =   1.05 
    XJ = 1.37e-07 
    VSAT = 8.5e+04 
    A0 =  1.495 
    AGS =  0.275 
    A1 =      0 
    A2 =      1 
    AT =  6e+04 
    KETA = -0.002248 
    NSUB =  6e+16 
    NDEP =  1e+17 
    NSD =  1e+20 
    NGATE =  1e+21 
    GAMMA1 =      0 
    GAMMA2 =      0 
    VBX =      0 
    VBM =     -3 
    XT = 1.55e-07 
    K1 =    0.6 
    KT1 = -0.1793 
    KT1L =  2e-08 
    KT2 = -0.02903 
    K2 =  -0.05 
    K3 =      0 
    K3B =    0.7 
    LPE0 =  7e-08 
    LPEB =      0 
    DVTP0 = -1e-07 
    DVTP1 =      0 
    W0 =      0 
    DVT0 =      7 
    DVT1 =   0.36 
    DVT2 =   0.01 
    DVT0W =      0 
    DVT1W =      0 
    DVT2W =      0 
    DROUT =   0.56 
    DSUB =   0.56 
    VTH0 = -0.642 
    EU =   1.67 
    UA = 2.579e-10 
    UA1 = 1.768e-09 
    UB = 1.231e-18 
    UB1 = -3.029e-18 
    UC = -2e-11 
    UC1 = 4.849e-12 
    U0 = 0.01046 
    UTE =     -1 
    VOFF = -0.132 
    VOFFL = -1.4e-08 
    MINV =  -0.08 
    FPROUT =      0 
    PDITS =      0 
    PDITSD =      0 
    PDITSL =      0 
    DELTA =  0.004 
    RDSW =    477 
    RDSWMIN =      0 
    RDWMIN =      0 
    RSWMIN =      0 
    RDW =    270 
    RSW =    270 
    PRWG =      0 
    PRWB =      0 
    PRT =      0 
    ETA0 =   0.08 
    ETAB = -0.152 
    PCLM =  0.362 
    PDIBLC1 =      0 
    PDIBLC2 = 3.06e-05 
    PDIBLCB =      0 
    PSCBE1 = 4.24e+09 
    PSCBE2 =  1e-08 
    PVAG =      0 
    WR =      1 
    DWG =      0 
    DWB =      0 
    XW = 1.23e-08 
    XWREF = 1.23e-08 
    XL = 1.36e-08 
    XLREF = 1.36e-08 
    B0 =      0 
    B1 =      0 
    ALPHA0 = -5.285e-06 
    ALPHA1 =   15.9 
    AGIDL =  5e-10 
    BGIDL =  2e+09 
    CGIDL =    0.5 
    PHIN = 0.04597 
    EGIDL =   0.37 
    AIGC = 0.0098 
    BIGC = 0.000759 
    CIGC =   0.03 
    AIGSD = 0.0098 
    BIGSD = 0.000759 
    CIGSD =   0.03 
    AIGBACC = 0.000949 
    BIGBACC = 0.00171 
    CIGBACC =  0.075 
    AIGBINV = 0.0111 
    BIGBINV = 0.000949 
    CIGBINV =  0.006 
    NIGC =      1 
    NIGBINV =      3 
    NIGBACC =      1 
    NTOX =      1 
    EIGBINV =    1.1 
    PIGCD =      1 
    POXEDGE =      1 
    XRCRG1 =     12 
    TNOIA =    1.5 
    TNOIB =    3.5 
    NTNOI =      1 
    XRCRG2 =      1 
    BETA0 =   33.6 
    IJTHDFWD =    0.1 
    IJTHSFWD =    0.1 
    IJTHDREV =    0.1 
    IJTHSREV =    0.1 
    XJBVD =      1 
    XJBVS =      1 
    BVD =   8.55 
    BVS =   8.55 
    VFB =     -1 
    GBMIN =  1e-12 
    RBDB =     50 
    RBPB =     50 
    RBSB =     50 
    RBPS =     50 
    RBPD =     50 
    CGSL = 3.23e-10 
    CGDL = 3.23e-10 
    CKAPPAS =    0.6 
    CKAPPAD =    0.6 
    CF = 5.478e-11 
    CLC =  1e-07 
    CLE =    0.6 
    DWC = -6.5e-08 
    DLC = 7.306e-08 
    DLCIG =  5e-09 
    DWJ =      0 
    VFBCV =     -1 
    ACDE = 0.5037 
    MOIN =      8 
    NOFF =    1.4 
    VOFFCV =  -0.02 
    DMCG = 9.9e-08 
    DMCI = 1.62e-07 
    DMDG =      0 
    DMCGT =      0 
    XGW =      0 
    XGL =      0 
    RSHG =    0.1 
    NGCON =      1 
    TCJ = 0.0008479 
    TPB = 0.001659 
    TCJSW = 0.000503 
    TPBSW = 0.002829 
    TCJSWG = 0.0002 
    TPBSWG = 0.0003037 
    SK0 =      0 
    SK1 =      0 
    SK2 =      0 
    SL =  2e-06 
    SW =  2e-06 
    K =      0 
    LCIT = -2e-10 
    LVSAT = 0.005595 
    LAT =  -0.07 
    LA0 = -9e-07 
    LAGS = 2.5e-07 
    LKETA = -3.24e-09 
    LKT2 = 1.227e-09 
    LVTH0 = -1.31e-08 
    LUA = 1.616e-16 
    LUA1 = 3.45e-17 
    LUB = -1e-25 
    LUB1 =  1e-25 
    LUC = 4.705e-18 
    LU0 = 1.215e-09 
    LDELTA = 3.23e-09 
    LETA0 = 4.292e-08 
    LETAB = 1.7e-08 
    LPCLM = 1.3e-07 
    LPDIBLC2 =  6e-10 
    LALPHA0 = 8.338e-13 
    LBETA0 = -1.837e-06 
    LAGIDL = -1.4e-16 
    LNOFF =  6e-07 
    LVOFFCV = -4e-08 
    WAT =  0.023 
    WA0 =  5e-09 
    WKETA = 3.031e-09 
    WKT1 = 1.029e-08 
    WVTH0 =  2e-09 
    WUA = -6.12e-17 
    WUB = 1.996e-26 
    WUB1 = 1.94e-25 
    WU0 =  2e-10 
    WPCLM = -1e-08 
    WAGIDL =  6e-16 
    PVSAT = -2.029e-09 
    PAT =  5e-09 
    PA0 = 9.04e-14 
    PKT1 =  8e-15 
    PK2 = -1e-16 
    PDVT1 = 5.016e-15 
    PVTH0 = -1e-15 
    PUA = 4.596e-23 
    PUA1 = 3.438e-24 
    PUB = -3.305e-32 
    PUB1 =  8e-33 
    PUC = -1.25e-24 
    PUC1 = 2.2e-24 
    PU0 = -2e-16 
    PVOFF = -2.128e-15 
    PETA0 = 1.08e-14 
    PAGIDL = -4e-22 
    TNOM =  298.1 
    CGSO = 9.5e-12 
    CGDO = 9.5e-12 
    CGBO =      0 
    XPART =      1 
    RSH =     14 
    JSS = 1.593e-07 
    JSWS = 1.013e-13 
    JSWGS = 1.53e-12 
    PBS =  0.729 
    MJS = 0.3168 
    PBSWS =   1.03 
    MJSWS = 0.1784 
    CJS = 0.001294 
    CJSWS = 6.083e-11 
    NJS = 0.9839 
    PBSWGS = 0.8317 
    MJSWGS =  0.465 
    CJSWGS = 1.698e-10 
    XTIS =      3 
    JSD = 1.593e-07 
    JSWD = 1.013e-13 
    JSWGD = 1.53e-12 
    PBD =  0.729 
    MJD = 0.3168 
    PBSWD =   1.03 
    MJSWD = 0.1784 
    CJD = 0.001294 
    CJSWD = 6.083e-11 
    NJD = 0.9839 
    PBSWGD = 0.8317 
    MJSWGD =  0.465 
    CJSWGD = 1.698e-10 
    XTID =      3 
    LMLT =      1 
    WMLT =      1 
    LINT =  4e-09 
    LL = -5e-15 
    LLC =      0 
    LLN =    0.9 
    LW =      0 
    LWC =      0 
    LWN =      1 
    LWL =      0 
    LWLC =      0 
    LMIN = 3.96e-07 
    LMAX = 0.0001 
    WINT = -2e-08 
    WL = -1.1e-14 
    WLC =      0 
    WLN =   0.98 
    WW =  9e-15 
    WWC =      0 
    WWN =   0.96 
    WWL =      0 
    WWLC =      0 
    WMIN = 2.88e-07 
    WMAX = 0.0001 
    NOIA = 5.223e+41 
    NOIB = 1.399e+26 
    NOIC =  6e+09 
    EM =  2e+09 
    EF =   1.21 
    AF =      1 
    KF =      0 
    TRS =      0 
    TRD =      0 
    TEMPMOD  =      0 
    LAMBDA   =      0 
    VTL      =  2e+05 m/s
    LC       =  5e-09 
    XN       =      3 
    LLAMBDA  =      0 
    LVTL     =      0 
    LXN      =      0 
    WLAMBDA  =      0 
    WVTL     =      0 
    WXN      =      0 
    PLAMBDA  =      0 
    PVTL     =      0 
    PXN      =      0 
    RNOIA    =  0.577 
    RNOIB    = 0.5164 
    SAREF(SA0) = 2.61e-07 m
    SBREF(SB0) = 2.61e-07 m
    WLOD     =      0 m
    KU0      =  3e-09 1/m
    KVSAT    =      1 
    KVTH0    =  4e-09 m
    TKU0     =      0 
    LLODKU0  =      1 
    WLODKU0  =      1 
    LLODVTH  =      1 
    WLODVTH  =      1 
    LKU0     =  2e-06 
    WKU0     =      0 
    PKU0     =      0 
    LKVTH0   =  7e-07 
    WKVTH0   =  3e-07 
    PKVTH0   =  2e-13 
    STK2     =      0 
    LODK2    =      1 
    STETA0   =      0 
    LODETA0  =      1 
    LXRCRG1  =      0 
    WXRCRG1  =      0 
    PXRCRG1  =      0 
    LXRCRG2  =      0 
    WXRCRG2  =      0 
    PXRCRG2  =      0 
 

    *** UCB's BSIM4.4.0 new diode model is activated. ***
    *** UCB's Diode Model Parameters ***

    JTSS         =      0 
    JTSSWS       =      0 
    JTSSWGS      =  7e-10 
    JTSD         =      0 
    JTSSWD       =      0 
    JTSSWGD      =  7e-10 
    NJTS         =     20 
    NJTSSW       =     20 
    NJTSSWG      =     20 
    XTSS         =   0.02 
    XTSSWS       =   0.02 
    XTSSWGS      =   0.02 
    XTSD         =   0.02 
    XTSSWD       =   0.02 
    XTSSWGD      =   0.02 
    TNJTS        =      0 
    TNJTSSW      =      0 
    TNJTSSWG     =      0 
    VFBSDOFF     =      0 
    LVFBSDOFF    =      0 
    WVFBSDOFF    =      0 
    PVFBSDOFF    =      0 
    LINTNOI      = -1.8e-08 
    VTSS         =     10 
    VTSD         =     10 
    VTSSWS       =     10 
    VTSSWD       =     10 
    VTSSWGS      =     10 
    VTSSWGD      =     10 
    TTDIOMOD     =      1 
 

    *** UCB's BSIM4.5.0 new model is activated. ***
    UD         =  1e+14 
    UD1        =      0 
    UP         =      0 
    LP         =  1e-08 
    TVOFF      =  0.005 
    TVFBSDOFF  =      0 
    RBPS0      =     50 
    RBPSL      =      0 
    RBPSW      =      0 
    RBPSNF     =      0 
    RBPD0      =     50 
    RBPDL      =      0 
    RBPDW      =      0 
    RBPDNF     =      0 
    RBPBX0     =    100 
    RBPBXL     =      0 
    RBPBXW     =      0 
    RBPBXNF    =      0 
    RBPBY0     =    100 
    RBPBYL     =      0 
    RBPBYW     =      0 
    RBPBYNF    =      0 
    RBSBX0     =    100 
    RBSBY0     =    100 
    RBDBX0     =    100 
    RBDBY0     =    100 
    RBSDBXL    =      0 
    RBSDBXW    =      0 
    RBSDBXNF   =      0 
    RBSDBYL    =      0 
    RBSDBYW    =      0 
    RBSDBYNF   =      0 
    LUD        =      0 
    LUD1       =      0 
    LUP        =      0 
    LLP        =      0 
    LTVOFF     =      0 
    LTVFBSDOFF =      0 
    WUD        =      0 
    WUD1       =      0 
    WUP        =      0 
    WLP        =      0 
    WTVOFF     = 6.4e-10 
    WTVFBSDOFF =      0 
    PUD        =      0 
    PUD1       =      0 
    PUP        =      0 
    PLP        =      0 
    PTVOFF     =      0 
    PTVFBSDOFF =      0 
    WEB        =     10 
    WEC        =      0 
    KVTH0WE    = -0.008 
    K2WE       =      0 
    KU0WE      = -0.004 
    SCREF      =  1e-06 
    WPEMOD     =      1 
    LKVTH0WE   = -6e-10 
    LK2WE      =      0 
    LKU0WE     =      0 
    WKVTH0WE   =  3e-10 
    WK2WE      =      0 
    WKU0WE     = -1e-10 
    PKVTH0WE   =  1e-16 
    PK2WE      =      0 
    PKU0WE     = -8e-17 
 

 
Model Name: pod33ll_ckt  

 BSIM4 Model (Level 54)

    MOBMOD = 0
    BINUNIT = 2
    PARAMCHK = 1
    CAPMOD = 2
    DIOMOD = 2
    RDSMOD = 1
    TRNQSMOD = 0
    ACNQSMOD = 0
    RBODYMOD = 0
    RGATEMOD = 0
    PERMOD = 1
    GEOMOD = 0
    RGEOMOD = 1
    FNOIMOD = 1
    TNOIMOD = 0
    IGCMOD = 0
    IGBMOD = 0
    STIMOD = 1
    VBFWDMOD = 0
    VERSION =    4.5 
    TOXREF = 6.02e-09 
    TOXE = 6.119e-09 
    TOXP = 5.979e-09 
    TOXM = 6.119e-09 
    DTOX = 1.4e-10 
    EPSROX =    3.9 
    CDSC =      0 
    CDSCB =      0 
    CDSCD =      0 
    CIT = 0.00063 
    NFACTOR =   1.05 
    XJ = 1.37e-07 
    VSAT = 8.5e+04 
    A0 =  1.495 
    AGS =  0.275 
    A1 =      0 
    A2 =      1 
    AT =  6e+04 
    KETA = -0.002248 
    NSUB =  6e+16 
    NDEP =  1e+17 
    NSD =  1e+20 
    NGATE =  1e+21 
    GAMMA1 =      0 
    GAMMA2 =      0 
    VBX =      0 
    VBM =     -3 
    XT = 1.55e-07 
    K1 =    0.6 
    KT1 = -0.1793 
    KT1L =  2e-08 
    KT2 = -0.02903 
    K2 =  -0.05 
    K3 =      0 
    K3B =    0.7 
    LPE0 =  7e-08 
    LPEB =      0 
    DVTP0 = -1e-07 
    DVTP1 =      0 
    W0 =      0 
    DVT0 =      7 
    DVT1 =   0.36 
    DVT2 =   0.01 
    DVT0W =      0 
    DVT1W =      0 
    DVT2W =      0 
    DROUT =   0.56 
    DSUB =   0.56 
    VTH0 = -0.642 
    EU =   1.67 
    UA = 2.579e-10 
    UA1 = 1.768e-09 
    UB = 1.231e-18 
    UB1 = -3.029e-18 
    UC = -2e-11 
    UC1 = 4.849e-12 
    U0 = 0.01046 
    UTE =     -1 
    VOFF = -0.132 
    VOFFL = -1.4e-08 
    MINV =  -0.08 
    FPROUT =      0 
    PDITS =      0 
    PDITSD =      0 
    PDITSL =      0 
    DELTA =  0.004 
    RDSW =    477 
    RDSWMIN =      0 
    RDWMIN =      0 
    RSWMIN =      0 
    RDW =    270 
    RSW =    270 
    PRWG =      0 
    PRWB =      0 
    PRT =      0 
    ETA0 =   0.08 
    ETAB = -0.152 
    PCLM =  0.362 
    PDIBLC1 =      0 
    PDIBLC2 = 3.06e-05 
    PDIBLCB =      0 
    PSCBE1 = 4.24e+09 
    PSCBE2 =  1e-08 
    PVAG =      0 
    WR =      1 
    DWG =      0 
    DWB =      0 
    XW = 1.23e-08 
    XWREF = 1.23e-08 
    XL = 1.36e-08 
    XLREF = 1.36e-08 
    B0 =      0 
    B1 =      0 
    ALPHA0 = -5.285e-06 
    ALPHA1 =   15.9 
    AGIDL =  5e-10 
    BGIDL =  2e+09 
    CGIDL =    0.5 
    PHIN = 0.04597 
    EGIDL =   0.37 
    AIGC = 0.0098 
    BIGC = 0.000759 
    CIGC =   0.03 
    AIGSD = 0.0098 
    BIGSD = 0.000759 
    CIGSD =   0.03 
    AIGBACC = 0.000949 
    BIGBACC = 0.00171 
    CIGBACC =  0.075 
    AIGBINV = 0.0111 
    BIGBINV = 0.000949 
    CIGBINV =  0.006 
    NIGC =      1 
    NIGBINV =      3 
    NIGBACC =      1 
    NTOX =      1 
    EIGBINV =    1.1 
    PIGCD =      1 
    POXEDGE =      1 
    XRCRG1 =     12 
    TNOIA =    1.5 
    TNOIB =    3.5 
    NTNOI =      1 
    XRCRG2 =      1 
    BETA0 =   33.6 
    IJTHDFWD =    0.1 
    IJTHSFWD =    0.1 
    IJTHDREV =    0.1 
    IJTHSREV =    0.1 
    XJBVD =      1 
    XJBVS =      1 
    BVD =   8.55 
    BVS =   8.55 
    VFB =     -1 
    GBMIN =  1e-12 
    RBDB =     50 
    RBPB =     50 
    RBSB =     50 
    RBPS =     50 
    RBPD =     50 
    CGSL = 3.23e-10 
    CGDL = 3.23e-10 
    CKAPPAS =    0.6 
    CKAPPAD =    0.6 
    CF = 5.478e-11 
    CLC =  1e-07 
    CLE =    0.6 
    DWC = -6.5e-08 
    DLC = 7.306e-08 
    DLCIG =  5e-09 
    DWJ =      0 
    VFBCV =     -1 
    ACDE = 0.5037 
    MOIN =      8 
    NOFF =    1.4 
    VOFFCV =  -0.02 
    DMCG = 9.9e-08 
    DMCI = 1.62e-07 
    DMDG =      0 
    DMCGT =      0 
    XGW =      0 
    XGL =      0 
    RSHG =    0.1 
    NGCON =      1 
    TCJ = 0.0008479 
    TPB = 0.001659 
    TCJSW = 0.000503 
    TPBSW = 0.002829 
    TCJSWG = 0.0002 
    TPBSWG = 0.0003037 
    SK0 =      0 
    SK1 =      0 
    SK2 =      0 
    SL =  2e-06 
    SW =  2e-06 
    K =      0 
    LCIT = -2e-10 
    LVSAT = 0.005595 
    LAT =  -0.07 
    LA0 = -9e-07 
    LAGS = 2.5e-07 
    LKETA = -3.24e-09 
    LKT2 = 1.227e-09 
    LVTH0 = -1.31e-08 
    LUA = 1.616e-16 
    LUA1 = 3.45e-17 
    LUB = -1e-25 
    LUB1 =  1e-25 
    LUC = 4.705e-18 
    LU0 = 1.215e-09 
    LDELTA = 3.23e-09 
    LETA0 = 4.292e-08 
    LETAB = 1.7e-08 
    LPCLM = 1.3e-07 
    LPDIBLC2 =  6e-10 
    LALPHA0 = 8.338e-13 
    LBETA0 = -1.837e-06 
    LAGIDL = -1.4e-16 
    LNOFF =  6e-07 
    LVOFFCV = -4e-08 
    WAT =  0.023 
    WA0 =  5e-09 
    WKETA = 3.031e-09 
    WKT1 = 1.029e-08 
    WVTH0 =  2e-09 
    WUA = -6.12e-17 
    WUB = 1.996e-26 
    WUB1 = 1.94e-25 
    WU0 =  2e-10 
    WPCLM = -1e-08 
    WAGIDL =  6e-16 
    PVSAT = -2.029e-09 
    PAT =  5e-09 
    PA0 = 9.04e-14 
    PKT1 =  8e-15 
    PK2 = -1e-16 
    PDVT1 = 5.016e-15 
    PVTH0 = -1e-15 
    PUA = 4.596e-23 
    PUA1 = 3.438e-24 
    PUB = -3.305e-32 
    PUB1 =  8e-33 
    PUC = -1.25e-24 
    PUC1 = 2.2e-24 
    PU0 = -2e-16 
    PVOFF = -2.128e-15 
    PETA0 = 1.08e-14 
    PAGIDL = -4e-22 
    TNOM =  298.1 
    CGSO = 9.5e-12 
    CGDO = 9.5e-12 
    CGBO =      0 
    XPART =      1 
    RSH =     14 
    JSS = 1.593e-07 
    JSWS = 1.013e-13 
    JSWGS = 1.53e-12 
    PBS =  0.729 
    MJS = 0.3168 
    PBSWS =   1.03 
    MJSWS = 0.1784 
    CJS = 0.001294 
    CJSWS = 6.083e-11 
    NJS = 0.9839 
    PBSWGS = 0.8317 
    MJSWGS =  0.465 
    CJSWGS = 1.698e-10 
    XTIS =      3 
    JSD = 1.593e-07 
    JSWD = 1.013e-13 
    JSWGD = 1.53e-12 
    PBD =  0.729 
    MJD = 0.3168 
    PBSWD =   1.03 
    MJSWD = 0.1784 
    CJD = 0.001294 
    CJSWD = 6.083e-11 
    NJD = 0.9839 
    PBSWGD = 0.8317 
    MJSWGD =  0.465 
    CJSWGD = 1.698e-10 
    XTID =      3 
    LMLT =      1 
    WMLT =      1 
    LINT =  4e-09 
    LL = -5e-15 
    LLC =      0 
    LLN =    0.9 
    LW =      0 
    LWC =      0 
    LWN =      1 
    LWL =      0 
    LWLC =      0 
    LMIN = 3.96e-07 
    LMAX = 0.0001 
    WINT = -2e-08 
    WL = -1.1e-14 
    WLC =      0 
    WLN =   0.98 
    WW =  9e-15 
    WWC =      0 
    WWN =   0.96 
    WWL =      0 
    WWLC =      0 
    WMIN = 2.88e-07 
    WMAX = 0.0001 
    NOIA = 5.223e+41 
    NOIB = 1.399e+26 
    NOIC =  6e+09 
    EM =  2e+09 
    EF =   1.21 
    AF =      1 
    KF =      0 
    TRS =      0 
    TRD =      0 
    TEMPMOD  =      0 
    LAMBDA   =      0 
    VTL      =  2e+05 m/s
    LC       =  5e-09 
    XN       =      3 
    LLAMBDA  =      0 
    LVTL     =      0 
    LXN      =      0 
    WLAMBDA  =      0 
    WVTL     =      0 
    WXN      =      0 
    PLAMBDA  =      0 
    PVTL     =      0 
    PXN      =      0 
    RNOIA    =  0.577 
    RNOIB    = 0.5164 
    SAREF(SA0) = 2.61e-07 m
    SBREF(SB0) = 2.61e-07 m
    WLOD     =      0 m
    KU0      =  3e-09 1/m
    KVSAT    =      1 
    KVTH0    =  4e-09 m
    TKU0     =      0 
    LLODKU0  =      1 
    WLODKU0  =      1 
    LLODVTH  =      1 
    WLODVTH  =      1 
    LKU0     =  2e-06 
    WKU0     =      0 
    PKU0     =      0 
    LKVTH0   =  7e-07 
    WKVTH0   =  3e-07 
    PKVTH0   =  2e-13 
    STK2     =      0 
    LODK2    =      1 
    STETA0   =      0 
    LODETA0  =      1 
    LXRCRG1  =      0 
    WXRCRG1  =      0 
    PXRCRG1  =      0 
    LXRCRG2  =      0 
    WXRCRG2  =      0 
    PXRCRG2  =      0 
 

    *** UCB's BSIM4.4.0 new diode model is activated. ***
    *** UCB's Diode Model Parameters ***

    JTSS         =      0 
    JTSSWS       =      0 
    JTSSWGS      =  7e-10 
    JTSD         =      0 
    JTSSWD       =      0 
    JTSSWGD      =  7e-10 
    NJTS         =     20 
    NJTSSW       =     20 
    NJTSSWG      =     20 
    XTSS         =   0.02 
    XTSSWS       =   0.02 
    XTSSWGS      =   0.02 
    XTSD         =   0.02 
    XTSSWD       =   0.02 
    XTSSWGD      =   0.02 
    TNJTS        =      0 
    TNJTSSW      =      0 
    TNJTSSWG     =      0 
    VFBSDOFF     =      0 
    LVFBSDOFF    =      0 
    WVFBSDOFF    =      0 
    PVFBSDOFF    =      0 
    LINTNOI      = -1.8e-08 
    VTSS         =     10 
    VTSD         =     10 
    VTSSWS       =     10 
    VTSSWD       =     10 
    VTSSWGS      =     10 
    VTSSWGD      =     10 
    TTDIOMOD     =      1 
 

    *** UCB's BSIM4.5.0 new model is activated. ***
    UD         =  1e+14 
    UD1        =      0 
    UP         =      0 
    LP         =  1e-08 
    TVOFF      =  0.005 
    TVFBSDOFF  =      0 
    RBPS0      =     50 
    RBPSL      =      0 
    RBPSW      =      0 
    RBPSNF     =      0 
    RBPD0      =     50 
    RBPDL      =      0 
    RBPDW      =      0 
    RBPDNF     =      0 
    RBPBX0     =    100 
    RBPBXL     =      0 
    RBPBXW     =      0 
    RBPBXNF    =      0 
    RBPBY0     =    100 
    RBPBYL     =      0 
    RBPBYW     =      0 
    RBPBYNF    =      0 
    RBSBX0     =    100 
    RBSBY0     =    100 
    RBDBX0     =    100 
    RBDBY0     =    100 
    RBSDBXL    =      0 
    RBSDBXW    =      0 
    RBSDBXNF   =      0 
    RBSDBYL    =      0 
    RBSDBYW    =      0 
    RBSDBYNF   =      0 
    LUD        =      0 
    LUD1       =      0 
    LUP        =      0 
    LLP        =      0 
    LTVOFF     =      0 
    LTVFBSDOFF =      0 
    WUD        =      0 
    WUD1       =      0 
    WUP        =      0 
    WLP        =      0 
    WTVOFF     = 6.4e-10 
    WTVFBSDOFF =      0 
    PUD        =      0 
    PUD1       =      0 
    PUP        =      0 
    PLP        =      0 
    PTVOFF     =      0 
    PTVFBSDOFF =      0 
    WEB        =     10 
    WEC        =      0 
    KVTH0WE    = -0.008 
    K2WE       =      0 
    KU0WE      = -0.004 
    SCREF      =  1e-06 
    WPEMOD     =      1 
    LKVTH0WE   = -6e-10 
    LK2WE      =      0 
    LKU0WE     =      0 
    WKVTH0WE   =  3e-10 
    WK2WE      =      0 
    WKU0WE     = -1e-10 
    PKVTH0WE   =  1e-16 
    PK2WE      =      0 
    PKU0WE     = -8e-17 
 

 
Model Name: pod33ll_ckt  

 BSIM4 Model (Level 54)

    MOBMOD = 0
    BINUNIT = 2
    PARAMCHK = 1
    CAPMOD = 2
    DIOMOD = 2
    RDSMOD = 1
    TRNQSMOD = 0
    ACNQSMOD = 0
    RBODYMOD = 0
    RGATEMOD = 0
    PERMOD = 1
    GEOMOD = 0
    RGEOMOD = 1
    FNOIMOD = 1
    TNOIMOD = 0
    IGCMOD = 0
    IGBMOD = 0
    STIMOD = 1
    VBFWDMOD = 0
    VERSION =    4.5 
    TOXREF = 6.02e-09 
    TOXE = 6.119e-09 
    TOXP = 5.979e-09 
    TOXM = 6.119e-09 
    DTOX = 1.4e-10 
    EPSROX =    3.9 
    CDSC =      0 
    CDSCB =      0 
    CDSCD =      0 
    CIT = 0.00063 
    NFACTOR =   1.05 
    XJ = 1.37e-07 
    VSAT = 8.5e+04 
    A0 =  1.495 
    AGS =  0.275 
    A1 =      0 
    A2 =      1 
    AT =  6e+04 
    KETA = -0.002248 
    NSUB =  6e+16 
    NDEP =  1e+17 
    NSD =  1e+20 
    NGATE =  1e+21 
    GAMMA1 =      0 
    GAMMA2 =      0 
    VBX =      0 
    VBM =     -3 
    XT = 1.55e-07 
    K1 =    0.6 
    KT1 = -0.1793 
    KT1L =  2e-08 
    KT2 = -0.02903 
    K2 =  -0.05 
    K3 =      0 
    K3B =    0.7 
    LPE0 =  7e-08 
    LPEB =      0 
    DVTP0 = -1e-07 
    DVTP1 =      0 
    W0 =      0 
    DVT0 =      7 
    DVT1 =   0.36 
    DVT2 =   0.01 
    DVT0W =      0 
    DVT1W =      0 
    DVT2W =      0 
    DROUT =   0.56 
    DSUB =   0.56 
    VTH0 = -0.642 
    EU =   1.67 
    UA = 2.579e-10 
    UA1 = 1.768e-09 
    UB = 1.231e-18 
    UB1 = -3.029e-18 
    UC = -2e-11 
    UC1 = 4.849e-12 
    U0 = 0.01046 
    UTE =     -1 
    VOFF = -0.132 
    VOFFL = -1.4e-08 
    MINV =  -0.08 
    FPROUT =      0 
    PDITS =      0 
    PDITSD =      0 
    PDITSL =      0 
    DELTA =  0.004 
    RDSW =    477 
    RDSWMIN =      0 
    RDWMIN =      0 
    RSWMIN =      0 
    RDW =    270 
    RSW =    270 
    PRWG =      0 
    PRWB =      0 
    PRT =      0 
    ETA0 =   0.08 
    ETAB = -0.152 
    PCLM =  0.362 
    PDIBLC1 =      0 
    PDIBLC2 = 3.06e-05 
    PDIBLCB =      0 
    PSCBE1 = 4.24e+09 
    PSCBE2 =  1e-08 
    PVAG =      0 
    WR =      1 
    DWG =      0 
    DWB =      0 
    XW = 1.23e-08 
    XWREF = 1.23e-08 
    XL = 1.36e-08 
    XLREF = 1.36e-08 
    B0 =      0 
    B1 =      0 
    ALPHA0 = -5.285e-06 
    ALPHA1 =   15.9 
    AGIDL =  5e-10 
    BGIDL =  2e+09 
    CGIDL =    0.5 
    PHIN = 0.04597 
    EGIDL =   0.37 
    AIGC = 0.0098 
    BIGC = 0.000759 
    CIGC =   0.03 
    AIGSD = 0.0098 
    BIGSD = 0.000759 
    CIGSD =   0.03 
    AIGBACC = 0.000949 
    BIGBACC = 0.00171 
    CIGBACC =  0.075 
    AIGBINV = 0.0111 
    BIGBINV = 0.000949 
    CIGBINV =  0.006 
    NIGC =      1 
    NIGBINV =      3 
    NIGBACC =      1 
    NTOX =      1 
    EIGBINV =    1.1 
    PIGCD =      1 
    POXEDGE =      1 
    XRCRG1 =     12 
    TNOIA =    1.5 
    TNOIB =    3.5 
    NTNOI =      1 
    XRCRG2 =      1 
    BETA0 =   33.6 
    IJTHDFWD =    0.1 
    IJTHSFWD =    0.1 
    IJTHDREV =    0.1 
    IJTHSREV =    0.1 
    XJBVD =      1 
    XJBVS =      1 
    BVD =   8.55 
    BVS =   8.55 
    VFB =     -1 
    GBMIN =  1e-12 
    RBDB =     50 
    RBPB =     50 
    RBSB =     50 
    RBPS =     50 
    RBPD =     50 
    CGSL = 3.23e-10 
    CGDL = 3.23e-10 
    CKAPPAS =    0.6 
    CKAPPAD =    0.6 
    CF = 5.478e-11 
    CLC =  1e-07 
    CLE =    0.6 
    DWC = -6.5e-08 
    DLC = 7.306e-08 
    DLCIG =  5e-09 
    DWJ =      0 
    VFBCV =     -1 
    ACDE = 0.5037 
    MOIN =      8 
    NOFF =    1.4 
    VOFFCV =  -0.02 
    DMCG = 9.9e-08 
    DMCI = 1.62e-07 
    DMDG =      0 
    DMCGT =      0 
    XGW =      0 
    XGL =      0 
    RSHG =    0.1 
    NGCON =      1 
    TCJ = 0.0008479 
    TPB = 0.001659 
    TCJSW = 0.000503 
    TPBSW = 0.002829 
    TCJSWG = 0.0002 
    TPBSWG = 0.0003037 
    SK0 =      0 
    SK1 =      0 
    SK2 =      0 
    SL =  2e-06 
    SW =  2e-06 
    K =      0 
    LCIT = -2e-10 
    LVSAT = 0.005595 
    LAT =  -0.07 
    LA0 = -9e-07 
    LAGS = 2.5e-07 
    LKETA = -3.24e-09 
    LKT2 = 1.227e-09 
    LVTH0 = -1.31e-08 
    LUA = 1.616e-16 
    LUA1 = 3.45e-17 
    LUB = -1e-25 
    LUB1 =  1e-25 
    LUC = 4.705e-18 
    LU0 = 1.215e-09 
    LDELTA = 3.23e-09 
    LETA0 = 4.292e-08 
    LETAB = 1.7e-08 
    LPCLM = 1.3e-07 
    LPDIBLC2 =  6e-10 
    LALPHA0 = 8.338e-13 
    LBETA0 = -1.837e-06 
    LAGIDL = -1.4e-16 
    LNOFF =  6e-07 
    LVOFFCV = -4e-08 
    WAT =  0.023 
    WA0 =  5e-09 
    WKETA = 3.031e-09 
    WKT1 = 1.029e-08 
    WVTH0 =  2e-09 
    WUA = -6.12e-17 
    WUB = 1.996e-26 
    WUB1 = 1.94e-25 
    WU0 =  2e-10 
    WPCLM = -1e-08 
    WAGIDL =  6e-16 
    PVSAT = -2.029e-09 
    PAT =  5e-09 
    PA0 = 9.04e-14 
    PKT1 =  8e-15 
    PK2 = -1e-16 
    PDVT1 = 5.016e-15 
    PVTH0 = -1e-15 
    PUA = 4.596e-23 
    PUA1 = 3.438e-24 
    PUB = -3.305e-32 
    PUB1 =  8e-33 
    PUC = -1.25e-24 
    PUC1 = 2.2e-24 
    PU0 = -2e-16 
    PVOFF = -2.128e-15 
    PETA0 = 1.08e-14 
    PAGIDL = -4e-22 
    TNOM =  298.1 
    CGSO = 9.5e-12 
    CGDO = 9.5e-12 
    CGBO =      0 
    XPART =      1 
    RSH =     14 
    JSS = 1.593e-07 
    JSWS = 1.013e-13 
    JSWGS = 1.53e-12 
    PBS =  0.729 
    MJS = 0.3168 
    PBSWS =   1.03 
    MJSWS = 0.1784 
    CJS = 0.001294 
    CJSWS = 6.083e-11 
    NJS = 0.9839 
    PBSWGS = 0.8317 
    MJSWGS =  0.465 
    CJSWGS = 1.698e-10 
    XTIS =      3 
    JSD = 1.593e-07 
    JSWD = 1.013e-13 
    JSWGD = 1.53e-12 
    PBD =  0.729 
    MJD = 0.3168 
    PBSWD =   1.03 
    MJSWD = 0.1784 
    CJD = 0.001294 
    CJSWD = 6.083e-11 
    NJD = 0.9839 
    PBSWGD = 0.8317 
    MJSWGD =  0.465 
    CJSWGD = 1.698e-10 
    XTID =      3 
    LMLT =      1 
    WMLT =      1 
    LINT =  4e-09 
    LL = -5e-15 
    LLC =      0 
    LLN =    0.9 
    LW =      0 
    LWC =      0 
    LWN =      1 
    LWL =      0 
    LWLC =      0 
    LMIN = 3.96e-07 
    LMAX = 0.0001 
    WINT = -2e-08 
    WL = -1.1e-14 
    WLC =      0 
    WLN =   0.98 
    WW =  9e-15 
    WWC =      0 
    WWN =   0.96 
    WWL =      0 
    WWLC =      0 
    WMIN = 2.88e-07 
    WMAX = 0.0001 
    NOIA = 5.223e+41 
    NOIB = 1.399e+26 
    NOIC =  6e+09 
    EM =  2e+09 
    EF =   1.21 
    AF =      1 
    KF =      0 
    TRS =      0 
    TRD =      0 
    TEMPMOD  =      0 
    LAMBDA   =      0 
    VTL      =  2e+05 m/s
    LC       =  5e-09 
    XN       =      3 
    LLAMBDA  =      0 
    LVTL     =      0 
    LXN      =      0 
    WLAMBDA  =      0 
    WVTL     =      0 
    WXN      =      0 
    PLAMBDA  =      0 
    PVTL     =      0 
    PXN      =      0 
    RNOIA    =  0.577 
    RNOIB    = 0.5164 
    SAREF(SA0) = 2.61e-07 m
    SBREF(SB0) = 2.61e-07 m
    WLOD     =      0 m
    KU0      =  3e-09 1/m
    KVSAT    =      1 
    KVTH0    =  4e-09 m
    TKU0     =      0 
    LLODKU0  =      1 
    WLODKU0  =      1 
    LLODVTH  =      1 
    WLODVTH  =      1 
    LKU0     =  2e-06 
    WKU0     =      0 
    PKU0     =      0 
    LKVTH0   =  7e-07 
    WKVTH0   =  3e-07 
    PKVTH0   =  2e-13 
    STK2     =      0 
    LODK2    =      1 
    STETA0   =      0 
    LODETA0  =      1 
    LXRCRG1  =      0 
    WXRCRG1  =      0 
    PXRCRG1  =      0 
    LXRCRG2  =      0 
    WXRCRG2  =      0 
    PXRCRG2  =      0 
 

    *** UCB's BSIM4.4.0 new diode model is activated. ***
    *** UCB's Diode Model Parameters ***

    JTSS         =      0 
    JTSSWS       =      0 
    JTSSWGS      =  7e-10 
    JTSD         =      0 
    JTSSWD       =      0 
    JTSSWGD      =  7e-10 
    NJTS         =     20 
    NJTSSW       =     20 
    NJTSSWG      =     20 
    XTSS         =   0.02 
    XTSSWS       =   0.02 
    XTSSWGS      =   0.02 
    XTSD         =   0.02 
    XTSSWD       =   0.02 
    XTSSWGD      =   0.02 
    TNJTS        =      0 
    TNJTSSW      =      0 
    TNJTSSWG     =      0 
    VFBSDOFF     =      0 
    LVFBSDOFF    =      0 
    WVFBSDOFF    =      0 
    PVFBSDOFF    =      0 
    LINTNOI      = -1.8e-08 
    VTSS         =     10 
    VTSD         =     10 
    VTSSWS       =     10 
    VTSSWD       =     10 
    VTSSWGS      =     10 
    VTSSWGD      =     10 
    TTDIOMOD     =      1 
 

    *** UCB's BSIM4.5.0 new model is activated. ***
    UD         =  1e+14 
    UD1        =      0 
    UP         =      0 
    LP         =  1e-08 
    TVOFF      =  0.005 
    TVFBSDOFF  =      0 
    RBPS0      =     50 
    RBPSL      =      0 
    RBPSW      =      0 
    RBPSNF     =      0 
    RBPD0      =     50 
    RBPDL      =      0 
    RBPDW      =      0 
    RBPDNF     =      0 
    RBPBX0     =    100 
    RBPBXL     =      0 
    RBPBXW     =      0 
    RBPBXNF    =      0 
    RBPBY0     =    100 
    RBPBYL     =      0 
    RBPBYW     =      0 
    RBPBYNF    =      0 
    RBSBX0     =    100 
    RBSBY0     =    100 
    RBDBX0     =    100 
    RBDBY0     =    100 
    RBSDBXL    =      0 
    RBSDBXW    =      0 
    RBSDBXNF   =      0 
    RBSDBYL    =      0 
    RBSDBYW    =      0 
    RBSDBYNF   =      0 
    LUD        =      0 
    LUD1       =      0 
    LUP        =      0 
    LLP        =      0 
    LTVOFF     =      0 
    LTVFBSDOFF =      0 
    WUD        =      0 
    WUD1       =      0 
    WUP        =      0 
    WLP        =      0 
    WTVOFF     = 6.4e-10 
    WTVFBSDOFF =      0 
    PUD        =      0 
    PUD1       =      0 
    PUP        =      0 
    PLP        =      0 
    PTVOFF     =      0 
    PTVFBSDOFF =      0 
    WEB        =     10 
    WEC        =      0 
    KVTH0WE    = -0.008 
    K2WE       =      0 
    KU0WE      = -0.004 
    SCREF      =  1e-06 
    WPEMOD     =      1 
    LKVTH0WE   = -6e-10 
    LK2WE      =      0 
    LKU0WE     =      0 
    WKVTH0WE   =  3e-10 
    WK2WE      =      0 
    WKU0WE     = -1e-10 
    PKVTH0WE   =  1e-16 
    PK2WE      =      0 
    PKU0WE     = -8e-17 
 

 
Model Name: nod33ll_ckt  

 BSIM4 Model (Level 54)

    MOBMOD = 0
    BINUNIT = 2
    PARAMCHK = 1
    CAPMOD = 2
    DIOMOD = 2
    RDSMOD = 1
    TRNQSMOD = 0
    ACNQSMOD = 0
    RBODYMOD = 0
    RGATEMOD = 0
    PERMOD = 1
    GEOMOD = 0
    RGEOMOD = 1
    FNOIMOD = 1
    TNOIMOD = 0
    IGCMOD = 0
    IGBMOD = 0
    STIMOD = 1
    VBFWDMOD = 0
    VERSION =    4.5 
    TOXREF = 5.63e-09 
    TOXE = 5.77e-09 
    TOXP = 5.874e-09 
    TOXM = 5.63e-09 
    DTOX = -1.036e-10 
    EPSROX =    3.9 
    CDSC =  5e-05 
    CDSCB = 2.002e-05 
    CDSCD =      0 
    CIT = 0.0007521 
    NFACTOR =  1.414 
    XJ = 1.42e-07 
    VSAT = 9.4e+04 
    A0 =      1 
    AGS = 0.3474 
    A1 =      0 
    A2 =      1 
    AT = 1.38e+04 
    KETA = -0.003203 
    NSUB =  6e+16 
    NDEP = 1.3e+17 
    NSD =  1e+20 
    NGATE = 2.27e+22 
    GAMMA1 =      0 
    GAMMA2 =      0 
    VBX =      0 
    VBM =     -3 
    XT = 1.55e-07 
    K1 = 0.6381 
    KT1 = -0.173 
    KT1L = 3.417e-09 
    KT2 = -0.03838 
    K2 = 0.00301 
    K3 = -2.907 
    K3B =      0 
    LPE0 = 5.562e-08 
    LPEB =      0 
    DVTP0 =      0 
    DVTP1 =      0 
    W0 = -9.093e-08 
    DVT0 = 0.6583 
    DVT1 = 0.1013 
    DVT2 =      0 
    DVT0W = 0.5231 
    DVT1W = 1.18e+06 
    DVT2W =  1.064 
    DROUT =   0.56 
    DSUB =    0.7 
    VTH0 = 0.6275 
    EU =   1.67 
    UA = -9.715e-10 
    UA1 = 2.558e-09 
    UB = 2.378e-18 
    UB1 = -2.418e-18 
    UC = 1.209e-10 
    UC1 = -1e-12 
    U0 = 0.03266 
    UTE = -0.9763 
    VOFF = -0.1843 
    VOFFL = 9.667e-10 
    MINV = -0.6978 
    FPROUT =      0 
    PDITS =      0 
    PDITSD =      0 
    PDITSL =      0 
    DELTA = 0.003263 
    RDSW =    200 
    RDSWMIN =      0 
    RDWMIN =      0 
    RSWMIN =      0 
    RDW =  162.8 
    RSW =  162.8 
    PRWG =      0 
    PRWB =  0.028 
    PRT =      0 
    ETA0 =  0.118 
    ETAB = -0.1213 
    PCLM =  0.348 
    PDIBLC1 = 0.02463 
    PDIBLC2 = 0.0001766 
    PDIBLCB =  0.189 
    PSCBE1 = 4.24e+08 
    PSCBE2 = 3.491e-08 
    PVAG =      1 
    WR =      1 
    DWG = 8.451e-09 
    DWB = 1.096e-13 
    XW = 9.3e-09 
    XWREF = 9.3e-09 
    XL =  4e-08 
    XLREF =  4e-08 
    B0 = 5.953e-08 
    B1 =      0 
    ALPHA0 = 3.657e-08 
    ALPHA1 =  9.581 
    AGIDL = 9.423e-09 
    BGIDL = 2.636e+09 
    CGIDL =  130.1 
    PHIN =   0.15 
    EGIDL =  0.496 
    AIGC = 0.0136 
    BIGC = 0.00171 
    CIGC =  0.075 
    AIGSD = 0.0136 
    BIGSD = 0.00171 
    CIGSD =  0.075 
    AIGBACC = 0.000949 
    BIGBACC = 0.00171 
    CIGBACC =  0.075 
    AIGBINV = 0.0111 
    BIGBINV = 0.000949 
    CIGBINV =  0.006 
    NIGC =      1 
    NIGBINV =      3 
    NIGBACC =      1 
    NTOX =      1 
    EIGBINV =    1.1 
    PIGCD =      1 
    POXEDGE =      1 
    XRCRG1 =     12 
    TNOIA =    1.5 
    TNOIB =    3.5 
    NTNOI =      1 
    XRCRG2 =      1 
    BETA0 =  22.91 
    IJTHDFWD =    0.1 
    IJTHSFWD =    0.1 
    IJTHDREV =    0.1 
    IJTHSREV =    0.1 
    XJBVD =      1 
    XJBVS =      1 
    BVD =   9.45 
    BVS =   9.45 
    VFB =     -1 
    GBMIN =  1e-12 
    RBDB =     50 
    RBPB =     50 
    RBSB =     50 
    RBPS =     50 
    RBPD =     50 
    CGSL = 3.515e-10 
    CGDL = 3.515e-10 
    CKAPPAS =    0.6 
    CKAPPAD =    0.6 
    CF = 5.607e-11 
    CLC =  1e-07 
    CLE =    0.6 
    DWC = -6.5e-08 
    DLC = 8.665e-08 
    DLCIG =      0 
    DWJ =      0 
    VFBCV =     -1 
    ACDE = 0.2864 
    MOIN =  5.099 
    NOFF =  1.954 
    VOFFCV = -0.1431 
    DMCG = 9.9e-08 
    DMCI = 1.62e-07 
    DMDG =      0 
    DMCGT =      0 
    XGW =      0 
    XGL =      0 
    RSHG =    0.1 
    NGCON =      1 
    TCJ = 0.0008075 
    TPB = 0.001579 
    TCJSW = 0.0003398 
    TPBSW = 0.0006488 
    TCJSWG = 0.0005936 
    TPBSWG = 0.0003669 
    SK0 =      0 
    SK1 =      0 
    SK2 =      0 
    SL =  2e-06 
    SW =  2e-06 
    K =      0 
    LCIT = -5.294e-11 
    LVSAT = -0.008723 
    LKT1 = 1.1e-09 
    LKT2 =  4e-09 
    LK2 = -6.36e-09 
    LVTH0 = 5.753e-09 
    LUA = 5.684e-16 
    LUA1 = 5.971e-16 
    LUB = -1.843e-27 
    LUB1 = -5.981e-25 
    LUC = 1.868e-17 
    LUC1 = -2e-17 
    LU0 = 6.35e-09 
    LUTE = -3.976e-08 
    LDELTA = 1.069e-08 
    LPCLM = 6.797e-08 
    LALPHA1 = 7.643e-07 
    LBETA0 = 2.298e-08 
    LAGIDL = 3.57e-15 
    LCGIDL = 1.53e-05 
    LNOFF = 1.3e-07 
    LVOFFCV = -1.515e-08 
    WVSAT = -0.01913 
    WAGS = 4.368e-09 
    WKT1 = -2e-09 
    WVTH0 = 4.311e-09 
    WUA1 = -1.82e-16 
    WUB = -2.145e-25 
    WUB1 = -2e-26 
    WUC = -2.829e-17 
    WU0 = -3.692e-09 
    WUTE = -3.645e-08 
    WALPHA1 = 3.099e-07 
    WAGIDL = 2.905e-14 
    PCIT = -2.632e-18 
    PVSAT = 3.03e-09 
    PAT = -5.735e-11 
    PAGS = 2.156e-13 
    PKT1 = -5.122e-16 
    PK2 = 2.241e-15 
    PK3 = 2.24e-13 
    PPE0 = 5.024e-21 
    PDVT0 = -1.376e-14 
    PVTH0 = -1.177e-14 
    PUA = 4.702e-23 
    PUA1 = -7.425e-24 
    PUB = -2.178e-31 
    PUB1 = 2.525e-31 
    PUC = -1.091e-23 
    PUC1 =  1e-23 
    PU0 = -2.383e-15 
    PUTE = 2.392e-14 
    PETA0 = -3.61e-15 
    PPCLM = 2.4e-14 
    PBETA0 = -5.44e-14 
    PAGIDL = 1.367e-20 
    TNOM =  298.1 
    CGSO = 1.425e-12 
    CGDO = 1.425e-12 
    CGBO =      0 
    XPART =      1 
    RSH =   13.2 
    JSS = 2.308e-07 
    JSWS = 1.013e-13 
    JSWGS = 5.6e-14 
    PBS = 0.5832 
    MJS = 0.2363 
    PBSWS = 0.3922 
    MJSWS = 0.2203 
    CJS = 0.001388 
    CJSWS = 8.451e-11 
    NJS = 0.9807 
    PBSWGS =  0.976 
    MJSWGS =    0.6 
    CJSWGS = 1.434e-10 
    XTIS =      3 
    JSD = 2.308e-07 
    JSWD = 1.013e-13 
    JSWGD = 5.6e-14 
    PBD = 0.5832 
    MJD = 0.2363 
    PBSWD = 0.3922 
    MJSWD = 0.2203 
    CJD = 0.001388 
    CJSWD = 8.451e-11 
    NJD = 0.9807 
    PBSWGD =  0.976 
    MJSWGD =    0.6 
    CJSWGD = 1.434e-10 
    XTID =      3 
    LMLT =      1 
    WMLT =      1 
[...]
    WUP        =      0 
    WLP        =      0 
    WTVOFF     = 6.4e-10 
    WTVFBSDOFF =      0 
    PUD        =      0 
    PUD1       =      0 
    PUP        =      0 
    PLP        =      0 
    PTVOFF     =      0 
    PTVFBSDOFF =      0 
    WEB        =     10 
    WEC        =      0 
    KVTH0WE    = -0.008 
    K2WE       =      0 
    KU0WE      = -0.004 
    SCREF      =  1e-06 
    WPEMOD     =      1 
    LKVTH0WE   = -6e-10 
    LK2WE      =      0 
    LKU0WE     =      0 
    WKVTH0WE   =  3e-10 
    WK2WE      =      0 
    WKU0WE     = -1e-10 
    PKVTH0WE   =  1e-16 
    PK2WE      =      0 
    PKU0WE     = -8e-17 
 

  **info** (/export/home/wllv/shzhang/Bagging/test_bench/test3/circuit/tmp/worker.3/netlist:739) DC voltage reset to initial transient source value              in source        0:vdn                 new dc=  0.0000D+00
  **warning** (/export/home/wllv/shzhang/Bagging/test_bench/test3/circuit/tmp/worker.3/netlist:737) Capacitance of    1.000E+09 for c0 is too high. Please verify capacitance value.
 
      
 **info** set option symb=1 internally to help for convergence.
 *****************************************************************
 ******  option summary
 ******
 runlvl  = 3         bypass  = 2         

 **info** dc convergence failure, 
 resetting dcon option to 1 and retrying

 **info** dc convergence successful
 you can increase the efficiency of the
 operating point calculation by setting dcon= 1
 in the .option statement
1****** HSPICE -- D-2010.03 64-BIT (Feb 23 2010) linux ******                   
 ******  
 * msp generated netlist file

  ******  operating point information tnom=  25.000 temp= 125.000 *****
 ***** operating point status is all       simulation time is     0.     
     node    =voltage       node    =voltage       node    =voltage

 + 0:dn_net  =   0.       0:dnb_net =   0.       0:i10u_net=   1.8619 
 + 0:i5u_net =   1.2143   0:up_net  =   0.       0:upb_net =   0.     
 + 0:vcp_net =   2.2000   0:vdd33_ne=   3.3000   1:nb2     = 743.5053m
 + 1:net0119 = 297.6336m  1:net0124 = 301.8547m  1:net0149 = 743.5076m
 + 1:net0153 = 743.5099m  1:net35   =   3.2051   1:net47   =   3.2052 
 + 1:net58   = 299.9824m  1:net62   = 301.9621m  1:net78   =   0.     
 + 1:net79   =   3.3000   1:net91   =   1.2751   1:net98   =   2.6560 
 + 1:pb1     =   2.4751   1:pb2     =   2.5787   1:quench  =   2.1171 
 + 2:n78     =   1.3803   2:n79     =  49.2138m  2:net18   =   2.9038 


 ****  voltage sources

 subckt                                                              
 element   0:v0        0:vdn       0:vdnb      0:vupb      0:vup     
  volts       3.3000      0.          0.          0.          0.     
  current  -147.4593u     0.          0.          0.          0.     
  power     486.6156u     0.          0.          0.          0.     

 subckt    xi0         xi0       
 element   1:vlower    1:vupper  
  volts       0.          0.     
  current    40.0147u    40.0140u
  power       0.          0.     

     total voltage source power dissipation=  486.6156u       watts



 ***** current sources

 subckt                          
 element   0:i10       0:i5      
  volts       1.4381      2.0857 
  current    10.0000u     5.0000u
  power     -14.3814u   -10.4285u


     total current source power dissipation= -24.8099u       watts


 **** mosfets


 subckt    xi0.xnm31   xi0.xnm30   xi0.xpm29   xi0.xpm22   xi0.xpm11 
 element   3:m1        4:m1        5:m1        6:m1        7:m1      
 model     3:nod33ll_  3:nod33ll_  5:pod33ll_  5:pod33ll_  7:pod33ll_
 region        Cutoff      Cutoff      Cutoff      Cutoff      Linear
  id         77.1916p    75.0898p    -3.2490p    -3.2408p   -10.0095u
  ibs      -1.444e-20  -1.405e-20   1.596e-20   1.592e-20    47.7130f
  ibd        -1.3539p  -883.0858f     4.9938p     4.8860p    18.3450p
  vgs         0.          0.          0.          0.       -721.3270m
  vds         1.2143    743.5053m  -824.8509m  -721.3270m   -94.8931m
  vbs         0.          0.          0.          0.          0.     
  vth       615.6914m   615.7206m  -608.4278m  -608.4278m  -618.4435m
  vdsat      55.2551m    55.2551m   -56.4498m   -56.4498m  -167.8134m
  vod      -615.6914m  -615.7206m   608.4278m   608.4278m  -102.8835m
  beta        1.4073m     1.4072m   179.6991u   179.6991u     1.2520m
  gam eff   638.0600m   638.0600m   600.0000m   600.0000m   600.0000m
  gm          1.6473n     1.6024n    74.2646p    74.0767p    79.8797u
  gds         3.6777p     5.5730p    77.8071f    81.1883f    63.1771u
  gmb       591.1242p   575.0278p    23.3601p    23.3008p    23.2007u
  cdtot       1.8598f     2.1208f     3.8756f     3.9994f    66.3670f
  cgtot       5.1883f     5.3313f    18.3993f    18.4575f   143.9218f
  cstot       3.3088f     3.3088f     5.8108f     5.8108f   141.6777f
  cbtot       5.2177f     5.3357f    20.4315f    20.4971f    68.5025f
  cgs         1.7392f     1.7392f     2.4657f     2.4657f    96.1634f
  cgd       824.3277a   967.3253a     1.3706f     1.4288f    33.0307f



 subckt    xi0.xpm12   xi0.xpm8    xi0.xpm10   xi0.xpm3    xi0.xpm1  
 element   8:m1        9:m1       10:m1       11:m1       12:m1      
 model     8:pod33ll_  9:pod33ll_ 10:pod33ll_ 11:pod33ll_ 11:pod33ll_
 region        Linear    Saturati    Saturati      Linear      Linear
  id        -40.0140u   -40.0141u   -10.0095u   -21.4367u   -18.5781u
  ibs       184.7700f    78.0528p    20.1118p     1.1777p     1.2602p
  ibd        73.3662p    86.8052p    21.8702p     2.0996p     2.1004p
  vgs      -721.3270m  -730.0531m  -729.9578m    -2.2000     -2.1171 
  vds       -94.7978m  -549.2440m  -626.4339m  -924.8664m  -841.9753m
  vbs         0.         94.7978m    94.8931m   455.9583m   538.8494m
  vth      -618.4434m  -638.9641m  -638.9895m  -725.2364m  -742.7901m
  vdsat    -167.8134m  -156.8908m  -156.8138m    -1.3619     -1.2742 
  vod      -102.8836m   -91.0890m   -90.9683m    -1.4748     -1.3743 
  beta        5.0079m     4.3980m     1.0995m    24.3835u    24.5630u
  gam eff   600.0000m   600.0000m   600.0000m   600.0000m   600.0000m
  gm        319.2401u   423.5109u   105.9719u    19.3173u    17.8094u
  gds       253.0368u     1.0142u   234.5942n    11.6208u    11.4776u
  gmb        92.7243u   113.1363u    28.3082u     5.0708u     4.4756u
  cdtot     265.8198f    89.0765f    21.7172f     3.0007f     3.2910f
  cgtot     575.7660f   636.5493f   158.7606f     8.2750f     8.3381f
  cstot     556.3962f   646.0154f   163.8325f     8.3916f     8.3368f
  cbtot     263.6640f   285.9515f    73.6439f     2.7602f     2.7340f
  cgs       384.5924f   490.8864f   122.6607f     6.6691f     6.5729f
  cgd       132.2837f    54.7382f    13.3508f     1.4154f     1.5588f



 subckt    xi0.xpm2    xi0.xpm4    xi0.xnm5    xi0.xnm6    xi0.xnm7  
 element  13:m1       14:m1       15:m1       16:m1       17:m1      
 model    11:pod33ll_ 11:pod33ll_ 15:nod33ll_ 15:nod33ll_ 15:nod33ll_
 region        Linear      Linear      Cutoff      Cutoff      Cutoff
  id        -21.4182u   -18.5960u   9.487e-28     0.        9.468e-28
  ibs       109.9005f    96.3458f    -1.3904p    -2.3153p    -1.3904p
  ibd         1.2502p     1.1677p    -2.3153p    -2.7712p    -2.2324p
  vgs        -2.6560     -2.6560     -1.2751     -2.2000     -1.2751 
  vds      -538.8494m  -455.9583m   924.8664m   455.9583m   841.9753m
  vbs         0.          0.         -1.2751     -2.2000     -1.2751 
  vth      -613.4478m  -613.2514m   939.5124m     1.1324    939.5124m
  vdsat      -1.8685     -1.8693     58.0083m    59.7669m    58.0083m
  vod        -2.0425     -2.0427     -2.2146     -3.3324     -2.2146 
  beta       23.4668u    23.4655u   172.8198u   166.7564u   172.8198u
  gam eff   600.0000m   600.0000m   638.0600m   638.0600m   638.0600m
  gm          9.8235u     8.2448u   2.157e-26     0.        2.153e-26
  gds        33.6905u    35.8053u     0.          0.          0.     
  gmb         4.1879u     3.5812u   6.138e-27     0.        6.126e-27
  cdtot       8.9861f     9.4119f   755.9905a   719.5300a   763.6099a
  cgtot       9.6360f     9.6867f     2.9976f     2.9407f     3.0004f
  cstot       9.8734f     9.9440f   869.4639a   755.9905a   869.4639a
  cbtot       3.3802f     3.4555f     3.5678f     3.4754f     3.5727f
  cgs         5.6857f     5.5527f   286.3397a   241.9030a   286.3397a
  cgd         4.0302f     4.2152f   241.5738a   228.6757a   244.3442a



 subckt    xi0.xnm9    xi0.xnm14   xi0.xnm18   xi0.xnm21   xi0.xnm23 
 element  18:m1       19:m1       20:m1       21:m1       22:m1      
 model    15:nod33ll_ 19:nod33ll_ 20:nod33ll_ 21:nod33ll_ 19:nod33ll_
 region        Cutoff    Saturati    Saturati    Saturati    Saturati
  id          0.         10.0070u    40.0147u     5.0034u     9.9999u
  ibs        -2.2324p  -989.9115f    -3.3295p  -494.8482f  -981.2472f
  ibd        -2.7712p    -5.3364p   -10.9174p    -2.6671p    -1.6661p
  vgs        -2.1171    912.3325m   914.3122m   912.4399m   916.6610m
  vds       538.8494m     2.2767    975.1512m     2.1733    445.8763m
  vbs        -2.1171   -301.9621m  -299.9824m  -301.8547m  -297.6336m
  vth         1.1163    687.0928m   686.4979m   687.0605m   685.7917m
  vdsat      59.6366m   254.1898m   255.8315m   254.2788m   257.7841m
  vod        -3.2334    225.2397m   227.8143m   225.3794m   230.8693m
  beta      167.1989u   297.8360u     1.1911m   148.9163u   297.6999u
  gam eff   638.0600m   638.0600m   638.0600m   638.0600m   638.0600m
  gm          0.         56.8790u   226.1480u    28.4315u    55.8481u
  gds         0.         77.0123n   755.9666n    40.2314n   726.7619n
  gmb         0.         17.2314u    68.5501u     8.6135u    16.9481u
  cdtot     719.5300a     1.4991f     9.0880f     1.0897f     2.8136f
  cgtot       2.9435f    18.0305f    74.5806f     9.0230f    18.9497f
  cstot     763.6099a    21.3462f    82.7294f    10.6737f    21.3774f
  cbtot       3.4802f     8.3715f    31.4580f     4.5186f     8.6927f
  cgs       244.6857a    16.3989f    65.6921f     8.2000f    16.4633f
  cgd       228.6757a   574.4968a     4.6856f   294.5674a     1.4647f



 subckt    xi0.xnm15   xi0.xnm17   xi0.xnm20   xi0.xnm24   xi0.xnm33 
 element  23:m1       24:m1       25:m1       26:m1       27:m1      
 model    23:nod33ll_ 24:nod33ll_ 25:nod33ll_ 23:nod33ll_ 27:nod33ll_
 region      Saturati    Saturati    Saturati    Saturati      Linear
  id         10.0070u    40.0147u     5.0034u     9.9999u   -75.3384p
  ibs        -3.8620f    -9.7245f    -1.9310f    -3.8593f  -837.7034f
  ibd      -745.6591f    -2.9668p  -475.1024f  -737.0003f  -837.7011f
  vgs       743.5053m   743.5053m   743.5053m   743.5099m     1.1184 
  vds       301.9621m   299.9824m   301.8547m   297.6336m    -2.3249u
  vbs         0.          0.          0.          0.       -743.5076m
  vth       595.2278m   595.2278m   595.2278m   595.2277m   808.1061m
  vdsat     201.8130m   201.8131m   201.8130m   201.8159m   321.0751m
  vod       148.2775m   148.2775m   148.2775m   148.2822m   310.2458m
  beta      511.5169u     2.0461m   255.7585u   511.5166u   102.7677u
  gam eff   638.0600m   638.0600m   638.0600m   638.0600m   638.0600m
  gm         66.0077u   263.8523u    33.0027u    65.9094u   200.9220p
  gds         1.6663u     6.8403u   834.3011n     1.7646u    32.6267u
  gmb        22.7506u    90.9439u    11.3749u    22.7185u    56.7376p
  cdtot       4.6825f    18.8305f     2.7643f     4.7385f    17.1079f
  cgtot      30.9125f   123.6800f    15.4565f    30.9292f    17.3080f
  cstot      34.0945f   133.2625f    17.0473f    34.0954f    18.7713f
  cbtot      14.3229f    54.1856f     7.5839f    14.3288f     5.0038f
  cgs        25.9502f   103.7988f    12.9751f    25.9491f     8.7958f
  cgd         2.6011f    10.4453f     1.3008f     2.6239f     8.7925f



 subckt    xi0.xnm32   xi0.xnm27   xi0.xnm13   xi0.xnm25   xi0.xpm19 
 element  28:m1       29:m1       30:m1       31:m1       32:m1      
 model    27:nod33ll_ 29:nod33ll_ 30:nod33ll_ 31:nod33ll_ 32:pod33ll_
 region        Linear      Linear    Saturati    Saturati    Saturati
  id        -75.5417p     0.          4.9999u    10.0000u    -5.0041u
  ibs      -837.7057f     0.         -2.5838f    -1.8815p    24.1531f
  ibd      -837.7034f     0.         -1.3139p    -3.9108p     5.5371p
  vgs         1.1183    743.5053m     1.2143      1.1183   -824.8509m
  vds        -2.3312u     0.          1.2143      1.1183   -824.8509m
  vbs      -743.5099m     0.          0.       -743.5099m     0.     
  vth       808.1067m   587.7004m   578.1205m   806.6451m  -606.4086m
  vdsat     321.0730m   205.4433m   550.9559m   321.1517m  -240.2640m
  vod       310.2428m   155.8049m   636.1741m   311.7044m  -218.4423m
  beta      102.7678u   250.2963u    28.3008u   186.4617u   183.9784u
  gam eff   638.0600m   638.0600m   638.0600m   638.0600m   600.0000m
  gm        201.4654p     0.         14.3332u    48.4556u    36.1830u
  gds        32.6264u     0.         24.3034n   128.5418n    75.5705n
  gmb        56.8910p     0.          4.7419u    12.7608u    10.0480u
  cdtot      17.1079f   472.6088f     1.0481f     2.0615f     5.3734f
  cgtot      17.3080f   423.7599f    31.5117f    20.8584f    49.8349f
  cstot      18.7713f   441.5811f    36.5591f    23.4287f    54.4587f
  cbtot       5.0038f   161.5498f    11.4470f     8.0952f    21.6009f
  cgs         8.7958f   203.0594f    29.8572f    18.9125f    42.1128f
  cgd         8.7925f   218.6716f   525.8607a     1.0626f     2.7827f



 subckt    xi0.xnm26   xi0.xpm28   xi0.xnm34   xi0.xi40.x  xi0.xi40.x
 element  33:m1       34:m1       35:m1       36:m1       37:m1      
 model    33:nod33ll_ 34:pod33ll_ 35:nod33ll_ 36:pod33ll_ 36:pod33ll_
 region        Linear      Linear      Linear    Saturati    Saturati
  id          0.          0.          0.        -17.2016u    -8.1582u
  ibs         0.       -3.586e-28   1.508e-28    87.7105f    41.6495f
  ibd         0.       -3.586e-28     0.         20.9540p    31.0515p
  vgs         1.2143   -721.3270m     3.3000   -786.6756m  -703.7845m
  vds         0.          0.          0.       -786.6756m    -2.8546 
  vbs         0.          0.          0.          0.          0.     
  vth       586.7734m  -588.3055m   588.9906m  -612.1184m  -612.0948m
  vdsat     548.7178m  -161.0011m     2.5286   -212.9903m  -154.8537m
  vod       627.5212m  -133.0215m     2.7110   -174.5572m   -91.6897m
  beta      124.6970u    53.1070u   680.7246u   865.7712u   873.6554u
  gam eff   638.0600m   600.0000m   638.0600m   600.0000m   600.0000m
  gm          0.          0.          0.        141.5470u    85.6793u
  gds         0.          0.          0.        332.1047n    84.8381n
  gmb         0.          0.          0.         39.7336u    24.1859u
  cdtot     240.2471f   289.7804f     1.0178p    21.8859f    12.7410f
  cgtot     218.7877f   254.6152f   931.4180f   148.3730f   130.0660f
  cstot     228.3156f   257.8861f   971.4373f   167.7850f   150.2394f
  cbtot      77.0092f    95.3095f   308.4437f    77.6143f    74.6828f
  cgs       114.0821f   110.0017f   505.3226f   121.6161f   105.3256f
  cgd       110.7139f   130.3789f   466.6548f    10.4328f     4.4370f



 subckt    xi0.xi40.x  xi0.xi40.x  xi0.xi40.x  xi0.xi40.x  xi0.xi40.x
 element  38:m1       39:m1       40:m1       41:m1       42:m1      
 model    38:nod33ll_ 39:nod33ll_ 40:pod33ll_ 41:pod33ll_ 42:pod33ll_
 region      Saturati      Linear      Linear    Saturati    Saturati
  id         20.0417u     8.1600u     0.        -52.0697u   -25.3616u
  ibs       -10.2283f    -2.8803f  -2.971e-28   240.7966f   117.2888f
  ibd        -4.3947p  -668.0774f  -2.971e-28   113.3211p    48.0078p
  vgs         1.3803      1.3803   -721.3270m  -721.3270m  -721.3270m
  vds         2.1171     49.2138m     0.         -1.9197   -396.2155m
  vbs         0.          0.          0.          0.          0.     
  vth       582.0225m   581.7823m  -605.1120m  -611.5170m  -611.5164m
  vdsat     687.0625m   687.7950m  -165.0996m  -166.5622m  -166.5641m
  vod       798.2399m   798.4801m  -116.2150m  -109.8100m  -109.8106m
  beta       72.6460u   217.9188u   160.9358u     4.6809m     2.3405m
  gam eff   638.0600m   638.0600m   600.0000m   600.0000m   600.0000m
  gm         46.4964u     9.4252u     0.        520.5615u   253.9869u
  gds        41.3481n   160.2784u     0.        630.2481n   813.6819n
  gmb        15.4116u     3.7796u     0.        146.8592u    71.6490u
  cdtot       1.9309f   511.3772f    66.2908f    58.9756f    55.2154f
  cgtot     124.6197f   485.4880f    55.2611f   729.9775f   382.6251f
  cstot     146.5293f   499.9041f    58.7289f   792.6892f   395.9693f
  cbtot      43.7298f   158.2483f    28.9029f   340.6720f   178.0870f
  cgs       120.2783f   263.1325f    23.0740f   596.8938f   298.9528f
  cgd       925.5085a   237.3251f    28.8845f    28.3115f    31.5219f



 subckt    xi0.xi40.x
 element  43:m1      
 model    43:pod33ll_
 region      Saturati
  id        -52.0698u
  ibs       261.8357f
  ibd        14.5736p
  vgs        -1.3310 
  vds        -1.3803 
  vbs         0.     
  vth      -594.6972m
  vdsat    -642.0270m
  vod      -736.3513m
  beta      219.5760u
  gam eff   600.0000m
  gm        132.1551u
  gds       306.3045n
  gmb        34.3920u
  cdtot      12.3221f
  cgtot     263.2850f
  cstot     294.2366f
  cbtot      89.9765f
  cgs       245.0041f
  cgd         6.8212f



 ******  
 * msp generated netlist file

  ******  transient analysis tnom=  25.000 temp= 125.000 *****
   up_imin= -3.0263E-04    at=  6.0010E-08
               from=  2.0000E-08    to=  1.0000E-07
   up_iavg=  3.9665E-05  from=  2.0000E-08     to=  1.8000E-07
   up_imax=  3.1911E-04    at=  6.0020E-08
               from=  2.0000E-08    to=  1.0000E-07
   lo_imin=  3.7478E-05    at=  9.0012E-08
               from=  2.0000E-08    to=  1.0000E-07
   lo_iavg=  4.0018E-05  from=  2.0000E-08     to=  1.8000E-07
   lo_imax=  4.1041E-05    at=  3.0005E-08
               from=  2.0000E-08    to=  1.0000E-07

          ***** job concluded
1****** HSPICE -- D-2010.03 64-BIT (Feb 23 2010) linux ******                   
 ******  
 * msp generated netlist file

  ******  job statistics summary tnom=  25.000 temp= 125.000 *****
 
 
 ******  Machine Information  ******
 CPU:
 model name	: Intel(R) Xeon(R) CPU E7- 8837  @ 2.67GHz
 cpu MHz	: 1064.000
 
 OS:
 Linux version 2.6.32-220.el6.x86_64 (mockbuild@x86-004.build.bos.redhat.com) (g
 cc version 4.4.5 20110214 (Red Hat 4.4.5-6) (GCC) ) #1 SMP Wed Nov 9 08:03:13 E
 ST 2011


  ******  HSPICE Threads Information  ******

  Command Line Threads Count                  :     1
  Available CPU Count                         :    64
  Actual Model Evaluation(Load) Threads Count :     1
  Actual Solver Threads Count                 :     1


  ******  Circuit Statistics  ******
  # nodes       =     110 # elements   =      51
  # resistors   =       0 # capacitors =       1 # inductors   =       0
  # mutual_inds =       0 # vccs       =       0 # vcvs        =       0
  # cccs        =       0 # ccvs       =       0 # volt_srcs   =       7
  # curr_srcs   =       2 # diodes     =       0 # bjts        =       0
  # jfets       =       0 # mosfets    =      41 # U elements  =       0
  # T elements  =       0 # W elements =       0 # B elements  =       0
  # S elements  =       0 # P elements =       0 # va device   =       0


  ******  Runtime Statistics (seconds)  ******

  analysis           time    # points   tot. iter  conv.iter
  op point           0.05           1         252
  transient          0.25      100001        1446         579 rev=        19
  readin             0.11
  errchk             0.05
  setup              0.00
  output             0.00


           total memory used                878 kbytes
           total cpu time            0.47 seconds
           total elapsed time        0.50 seconds
           job started at     23:13:08 08/31/2018
           job ended   at     23:13:09 08/31/2018


 lic: Release hspice token(s) 
