***** HSPICE -- D-2010.03 64-BIT (Feb 23 2010) linux ******
 Input File: /export/home/wllv/shzhang/Bagging/test_bench/test3/circuit/tmp/work
 lic:
 lic: FLEXlm: v8.5b
 lic: USER:   wllv                 HOSTNAME: console
 lic: HOSTID: 3440b5b102f4         PID:      19320
 lic: Using FLEXlm license file:
 lic: /export/home/wllv/mysoft/hspice/license.dat
 lic: Checkout 1 hspice
 lic: License/Maintenance for hspice will expire on 31-dec-2020/2007.9
 lic: NODE LOCKED license on hostid 3440b5b102f4
 lic:
 init: begin read circuit files,  cpu clock=  1.10E-01
       option gmindc   =    1.000E-14
       option scale    =    0.900
       option scale    =    0.900
 init: end read circuit files,  cpu clock=  1.10E-01 memory=       178 kb
 init: begin check errors,  cpu clock=  1.10E-01
 init: end check errors,  cpu clock=  1.60E-01 memory=       895 kb
 init: begin setup matrix, pivot=     0 cpu clock=  1.60E-01
       establish matrix -- done,  cpu clock=  1.60E-01 memory=       949 kb
       re-order matrix -- done,  cpu clock=  1.60E-01 memory=       960 kb
 init: end setup matrix,  cpu clock=  1.60E-01 memory=      1006 kb
 dcop: begin dcop,  cpu clock=  1.70E-01
 dcop: end dcop,  cpu clock=  2.20E-01 memory=      1006 kb  tot_iter=     252
 sweep: tran tran0    begin, stop_t=  2.00E-07 #sweeps=**** cpu clock=  2.20E-01
 tran: time= 2.0005E-08 tot_iter=     141 conv_iter=      57 cpu clock= 2.50E-01
 tran: time= 4.0005E-08 tot_iter=     286 conv_iter=     115 cpu clock= 2.70E-01
 tran: time= 6.0000E-08 tot_iter=     429 conv_iter=     172 cpu clock= 3.00E-01
 tran: time= 8.0005E-08 tot_iter=     576 conv_iter=     231 cpu clock= 3.20E-01
 tran: time= 1.0001E-07 tot_iter=     721 conv_iter=     289 cpu clock= 3.50E-01
 tran: time= 1.2000E-07 tot_iter=     866 conv_iter=     347 cpu clock= 3.70E-01
 tran: time= 1.4000E-07 tot_iter=    1011 conv_iter=     405 cpu clock= 4.00E-01
 tran: time= 1.6000E-07 tot_iter=    1156 conv_iter=     463 cpu clock= 4.20E-01
 tran: time= 1.8000E-07 tot_iter=    1301 conv_iter=     521 cpu clock= 4.50E-01
 sweep: tran tran0    end,  cpu clock=  4.70E-01 memory=      1009 kb
>info:         ***** hspice job concluded
 lic: Release hspice token(s)
