$DATA1 SOURCE='HSPICERF' VERSION='D-2010.03'
.TITLE '*OMAMP OPTIMIZATION'
 gain gm phase pm ugf ugf_actual temper alter#
  6.8998692791e+01	  2.5432397247e+01	  -1.3280461331e+02	  4.7195386694e+01	  6.9828086641e-01	  6.9828086641e+05	
     27.000000 1
