$DATA1 SOURCE='HSPICERF' VERSION='D-2010.03'
.TITLE '*OMAMP OPTIMIZATION'
 srf srf_actual srr srr_actual vomax vomin temper alter#
  6.4771295811e-01	  -6.4771295811e+05	  1.8706743601e-01	  1.8706743601e+05	  1.3429852210e+00	  7.1695999159e-01	
     27.000000 1
