$DATA1 SOURCE='HSPICERF' VERSION='D-2010.03'
.TITLE '*OMAMP OPTIMIZATION'
 iq temper alter#
  3.5809375996e+01	     27.000000 1
