 ****** HSPICE -- D-2010.03 64-BIT (Feb 23 2010) linux ******                   
  Copyright (C) 2010 Synopsys, Inc. All Rights Reserved.                        
  Unpublished-rights reserved under US copyright laws.
  This program is protected by law and is subject to the 
  terms and conditions of the license agreement from Synopsys.
  Use of this program is your acceptance to be bound by the 
  license agreement. HSPICE is the trademark of Synopsys, Inc.
  Input File: ./Single_ended.sp                                                 
 lic:  
 lic: FLEXlm: v8.5b 
 lic: USER:   wllv                 HOSTNAME: console 
 lic: HOSTID: 3440b5b102f4         PID:      44052 
 lic: Using FLEXlm license file: 
 lic: 5280@su16 
 lic: Checkout 1 hspice 
 lic: License/Maintenance for hspice will expire on 31-dec-2017/2017.12 
 lic: FLOATING license(s) on SERVER 
 lic:   
1****** HSPICE -- D-2010.03 64-BIT (Feb 23 2010) linux ******                   
 ******  
 *netlist

  ******  circuit name directory
 circuit number to circuit name directory
   number circuitname                     definition         multiplier
        0 main circuit
        1 xac.                            opamp              1.00 
        2 xtr.                            opamp              1.00 
        3 xsw.                            opamp              1.00 
        4 xpsr.                           opamp              1.00 
        5 xcmrr.                          opamp              1.00 
 ***************************************************************************
 ***        model parameters  model name:   0:pch3.2   model type:pmos   ***
 ***************************************************************************

   *** general parameters ***
    deriv=   0.           

   ***  level 49  model parameters  ***

      hspver=    2006.03               level=         49         
     version=       3.24            paramchk=          0         
      apwarn=          1                lite=          0         
      vgslim=          0             binUnit=          2         
      capMod=          3               xpart=          1         
      mobMod=          1              nqsMod=          0         
      stiMod=          0                 elm=          5         
    sfvtflag=          0                 tox=   6.77e-09 meter   
          xj=    1.7e-07 meter       binflag=          0         
        lmin=    1.2e-06 meter          lmax=      1e-05 meter   
        wmin=      1e-05 meter          wmax=0.000900001 meter   
        lref=          0 meter          wref=          0 meter   
        lint=    3.5e-08 meter          wint=      2e-08 meter   
       lmult=          1               wmult=          1         
          ll=          0                 lln=         -1         
          lw=          0                 lwn=          1         
         lwl=          0                  wl=          0         
         wln=          1                  ww=          0         
         wwn=          1                 wwl=          0         
         dwg=          0 m/V             dwb=          0 m/V^1/2 
          xl=     -2e-08                  xw=          0         
          a0=   0.980741                 ags=       0.02 V^-1    
          b0=          0 meter            b1=          0 meter   
        keta=  0.0207516 V^-1           voff=    -0.1119 V       
       ngate=          0 cm^-3           vbx=          0 V       
         vbm=         -3 V                xt=   1.55e-07 meter   
        vth0=  -0.696649 V               nch=   4.95e+17 cm^-3   
        nsub=      6e+16 cm^-3           nlx=          0 meter   
      gamma1=          0 V^-1/2       gamma2=          0 V^-1/2  
          k1=   0.849595 V^1/2            k2=  0.0738452         
          k3=          0                 k3b=          0 V^-1    
          w0=          0 meter          dvt0=          0         
        dvt1=          0                dvt2=          0 V^-1    
       dvt0w=          0 meter^-1      dvt1w=          0 meter^-1
       dvt2w=          0 V^-1           dsub=          0         
        eta0=      1e-05                etab=     -1e-05 V^-1    
          u0=   0.013233 m^2/V/sec         ua=1.69025e-09 m/V     
          ub=2.68408e-19 (m/V)^2          uc=-1.0827e-10 V^-1    
        vsat=     153784 m/sec            a1=          0 v^-1    
          a2=       0.99               delta=       0.01 V       
        rdsw=        900 ohm-um         prwg=          0 V^-1    
        prwb=          0 V^-1/2           wr=          1         
        pclm=    0.48451             pdiblc1=      1e-06         
     pdiblc2=      1e-05             pdiblcb=       0.01 V^-1    
      pscbe1=1.87386e+08 V/m          pscbe2=      5e-07 V/m     
       drout=          0                pvag=          0         
     nfactor=          1                cdsc=          0 f/m^2   
       cdscb=          0 f/V/m^2       cdscd=          0 f/V/m^2 
         cit=0.000447635 f/m^2        alpha0=          0 m/V     
       beta0=    16.1083 V               dlc=    3.5e-08 meter   
         dwc=      2e-08 meter           clc=      1e-07 meter   
         cle=        0.6                cgso=   2.77e-10 f/m     
        cgdo=   2.77e-10 f/m            cgbo=2.04026e-10 f/m     
        cgsl=          0 f/m            cgdl=          0 f/m     
      ckappa=        0.6                  cf=          0 f/m     
        acde=          1 m/V            moin=         15 V^1/2   
        toxm=   6.77e-09 m            dtoxcv=          0 m       
         vfb (not used)                alpha1=   0.143217 1/V     
        ijth=        0.1 A              noff=          1         
      voffcv=          0                 tcj= 0.00099402 1/K     
       tcjsw=0.000690875 1/K          tcjswg=0.000690875 1/K     
         tpb= 0.00162501 V/K           tpbsw= 0.00162501 V/K     
      tpbswg= 0.00162501 V/K             llc=    -0.0165         
         lwc=          0                lwlc=          0         
         wlc=          0                 wwc=          0         
        wwlc=          0                tnom=     298.15 K       
         kt1=  -0.290429 V              kt1l=          0         
         kt2= -0.0258638                 ute=   -0.80869         
         ua1=  2.031e-09 m/V             ub1=-2.63703e-18 (m/V)^2 
         uc1=7.19078e-12 m/V^2            at=     -50000 m/s     
         prt=          0         
         using Berkeley noise model       noiMod=          2         
        noia=      4e+19                noib=      50000         
        noic=    8.4e-12                  em=      3e+07         
          ef=      1.104                  af=          1         
          kf=          0              gdsnoi=-1.23457e-29         
         using Berkeley diodes          using ACM 
         acm=        12                 hdif=     2e-07 meter    
        ldif=     9e-08 meter             js=   1.9e-07 amp/m^2  
         jsw=     1e-12 amp/m            xti=         3          
          nj=         1                   cj=0.00103531 f/m^2    
          mj=  0.395495                   pb=  0.804912 V        
        cjsw=2.23115e-10 f/m             mjsw=  0.257311          
         php (not used)                  pbsw=  0.804912 V        
      cjgate (not used)                 cjswg=2.34576e-10 f/m      
       mjswg=  0.257311                pbswg=  0.804912 V        
         la0=-8.05752e-08               lketa=-1.16226e-08         
       lvoff=-2.41466e-10               lvth0=-1.08668e-08         
         lk1= 1.7828e-08                 lk2=-6.08635e-09         
       leta0=      5e-15                 lu0=-1.52529e-09         
         lua=-1.09105e-16                 lub=7.61353e-26         
         luc=1.94216e-17               lvsat= -0.0375003         
       lpclm=1.53502e-07             lpscbe1=    125.001         
        lcit=6.03257e-11                lkt1=-8.63172e-09         
        lkt2=-2.67557e-10                lute=1.26252e-07         
        lub1=1.37059e-25                luc1=2.22426e-17         
       peta0=      6e-21         
 ***************************************************************************
 ***        model parameters  model name:   0:pch3.6   model type:pmos   ***
 ***************************************************************************

   *** general parameters ***
    deriv=   0.           

   ***  level 49  model parameters  ***

      hspver=    2006.03               level=         49         
     version=       3.24            paramchk=          0         
      apwarn=          1                lite=          0         
      vgslim=          0             binUnit=          2         
      capMod=          3               xpart=          1         
      mobMod=          1              nqsMod=          0         
      stiMod=          0                 elm=          5         
    sfvtflag=          0                 tox=   6.77e-09 meter   
          xj=    1.7e-07 meter       binflag=          0         
        lmin=    1.2e-06 meter          lmax=      1e-05 meter   
        wmin=    1.2e-06 meter          wmax=      1e-05 meter   
        lref=          0 meter          wref=          0 meter   
        lint=    3.5e-08 meter          wint=      2e-08 meter   
       lmult=          1               wmult=          1         
          ll=          0                 lln=         -1         
          lw=          0                 lwn=          1         
         lwl=          0                  wl=          0         
         wln=          1                  ww=          0         
         wwn=          1                 wwl=          0         
         dwg=          0 m/V             dwb=          0 m/V^1/2 
          xl=     -2e-08                  xw=          0         
          a0=   0.977201                 ags=       0.02 V^-1    
          b0=          0 meter            b1=          0 meter   
        keta=  0.0209535 V^-1           voff=  -0.111828 V       
       ngate=          0 cm^-3           vbx=          0 V       
         vbm=         -3 V                xt=   1.55e-07 meter   
        vth0=  -0.697368 V               nch=   4.95e+17 cm^-3   
        nsub=      6e+16 cm^-3           nlx=          0 meter   
      gamma1=          0 V^-1/2       gamma2=          0 V^-1/2  
          k1=   0.848422 V^1/2            k2=  0.0741322         
          k3=          0                 k3b=          0 V^-1    
          w0=          0 meter          dvt0=          0         
        dvt1=          0                dvt2=          0 V^-1    
       dvt0w=          0 meter^-1      dvt1w=          0 meter^-1
       dvt2w=          0 V^-1           dsub=          0         
        eta0=      1e-05                etab=     -1e-05 V^-1    
          u0=  0.0133135 m^2/V/sec         ua=1.70253e-09 m/V     
          ub=2.97198e-19 (m/V)^2          uc=-1.01898e-10 V^-1    
        vsat=     153784 m/sec            a1=          0 v^-1    
          a2=       0.99               delta=       0.01 V       
        rdsw=        900 ohm-um         prwg=          0 V^-1    
        prwb=          0 V^-1/2           wr=          1         
        pclm=   0.484989             pdiblc1=      1e-06         
     pdiblc2=      1e-05             pdiblcb=       0.01 V^-1    
      pscbe1=1.87386e+08 V/m          pscbe2=      5e-07 V/m     
       drout=          0                pvag=          0         
     nfactor=          1                cdsc=          0 f/m^2   
       cdscb=          0 f/V/m^2       cdscd=          0 f/V/m^2 
         cit=0.000446202 f/m^2        alpha0=          0 m/V     
       beta0=    16.1083 V               dlc=    3.5e-08 meter   
         dwc=      2e-08 meter           clc=      1e-07 meter   
         cle=        0.6                cgso=   2.77e-10 f/m     
        cgdo=   2.77e-10 f/m            cgbo=2.04026e-10 f/m     
        cgsl=          0 f/m            cgdl=          0 f/m     
      ckappa=        0.6                  cf=          0 f/m     
        acde=          1 m/V            moin=         15 V^1/2   
        toxm=   6.77e-09 m            dtoxcv=          0 m       
         vfb (not used)                alpha1=   0.143217 1/V     
        ijth=        0.1 A              noff=          1         
      voffcv=          0                 tcj= 0.00099402 1/K     
       tcjsw=0.000690875 1/K          tcjswg=0.000690875 1/K     
         tpb= 0.00162501 V/K           tpbsw= 0.00162501 V/K     
      tpbswg= 0.00162501 V/K             llc=    -0.0165         
         lwc=          0                lwlc=          0         
         wlc=          0                 wwc=          0         
        wwlc=          0                tnom=     298.15 K       
         kt1=  -0.290738 V              kt1l=          0         
         kt2= -0.0257823                 ute=  -0.821364         
         ua1=  2.031e-09 m/V             ub1=-2.65675e-18 (m/V)^2 
         uc1= 2.3077e-12 m/V^2            at=     -50000 m/s     
         prt=          0         
         using Berkeley noise model       noiMod=          2         
        noia=      4e+19                noib=      50000         
        noic=    8.4e-12                  em=      3e+07         
          ef=      1.104                  af=          1         
          kf=          0              gdsnoi=-1.23457e-29         
         using Berkeley diodes          using ACM 
         acm=        12                 hdif=     2e-07 meter    
        ldif=     9e-08 meter             js=   1.9e-07 amp/m^2  
         jsw=     1e-12 amp/m            xti=         3          
          nj=         1                   cj=0.00103531 f/m^2    
          mj=  0.395495                   pb=  0.804912 V        
        cjsw=2.23115e-10 f/m             mjsw=  0.257311          
         php (not used)                  pbsw=  0.804912 V        
      cjgate (not used)                 cjswg=2.34576e-10 f/m      
       mjswg=  0.257311                pbswg=  0.804912 V        
         la0=-7.78663e-08               lketa=-1.16659e-08         
       lvoff=-1.04639e-10               lvth0=-1.06784e-08         
         lk1=1.91949e-08                 lk2=-6.38564e-09         
       leta0=      5e-15                 lu0=-1.55535e-09         
         lua=-1.29346e-16                 lub=8.61713e-26         
         luc=2.09294e-17               lvsat= -0.0375003         
       lpclm=1.48761e-07             lpscbe1=    125.001         
        lcit=6.64859e-11                lkt1=-9.27384e-09         
        lkt2=-3.91554e-10                lute=1.26201e-07         
        lub1=1.50216e-25                luc1= 2.0329e-17         
         wa0=3.52532e-08               wketa=-2.01083e-09         
       wvoff=-7.14216e-10               wvth0=7.16623e-09         
         wk1=1.16894e-08                 wk2=-2.85815e-09         
         wu0=-8.0194e-10                 wua=-1.22293e-16         
         wub=-2.8675e-25                 wuc=-6.34697e-17         
       wpclm=-4.76464e-09                wcit=1.42751e-11         
        wkt1= 3.0755e-09                wkt2=-8.11557e-10         
        wute=1.26233e-07                wub1=1.96454e-25         
        wuc1=4.86355e-17                 pa0=-2.69804e-14         
       pketa=4.30964e-16               pvoff=-1.36279e-15         
       pvth0=-1.87658e-15                 pk1=-1.3614e-14         
         pk2=2.98091e-15               peta0=      6e-21         
         pu0=2.99448e-16                 pua=2.01606e-22         
         pub=-9.99587e-32                 puc=-1.50173e-23         
       ppclm= 4.7217e-14                pcit=-6.13558e-17         
        pkt1=6.39544e-15                pkt2=1.23501e-15         
        pute=5.05731e-16                pub1=-1.31047e-31         
        puc1=1.90592e-23         
 ***************************************************************************
 ***        model parameters  model name:   0:nch3.6   model type:nmos   ***
 ***************************************************************************

   *** general parameters ***
    deriv=   0.           

   ***  level 49  model parameters  ***

      hspver=    2006.03               level=         49         
     version=       3.24            paramchk=          0         
      apwarn=          1                lite=          0         
      vgslim=          0             binUnit=          2         
      capMod=          3               xpart=          1         
      mobMod=          1              nqsMod=          0         
      stiMod=          0                 elm=          5         
    sfvtflag=          0                 tox=    6.8e-09 meter   
          xj=    1.7e-07 meter       binflag=          0         
        lmin=    1.2e-06 meter          lmax=      1e-05 meter   
        wmin=    1.2e-06 meter          wmax=      1e-05 meter   
        lref=          0 meter          wref=          0 meter   
        lint=      4e-08 meter          wint=    1.5e-08 meter   
       lmult=          1               wmult=          1         
          ll=          0                 lln=         -1         
          lw=          0                 lwn=          1         
         lwl=          0                  wl=          0         
         wln=          1                  ww=          0         
         wwn=          1                 wwl=          0         
         dwg=          0 m/V             dwb=          0 m/V^1/2 
          xl=     -2e-08                  xw=          0         
          a0=   0.593165                 ags=       0.02 V^-1    
          b0=          0 meter            b1=          0 meter   
        keta=  0.0133658 V^-1           voff=  -0.129097 V       
       ngate=          0 cm^-3           vbx=          0 V       
         vbm=         -3 V                xt=   1.55e-07 meter   
        vth0=   0.733715 V               nch=   5.26e+17 cm^-3   
        nsub=      6e+16 cm^-3           nlx=          0 meter   
      gamma1=          0 V^-1/2       gamma2=          0 V^-1/2  
          k1=   0.841948 V^1/2            k2=  0.0358264         
          k3=          0                 k3b=          0 V^-1    
          w0=          0 meter          dvt0=          0         
        dvt1=          0                dvt2=          0 V^-1    
       dvt0w=          0 meter^-1      dvt1w=          0 meter^-1
       dvt2w=          0 V^-1           dsub=          0         
        eta0=4.34155e-06                etab=-4.34155e-06 V^-1    
          u0=  0.0404393 m^2/V/sec         ua=-6.56162e-10 m/V     
          ub=2.38498e-18 (m/V)^2          uc=1.01782e-10 V^-1    
        vsat=     100875 m/sec            a1=          0 v^-1    
          a2=       0.99               delta=       0.01 V       
        rdsw=        545 ohm-um         prwg=          0 V^-1    
        prwb=          0 V^-1/2           wr=          1         
        pclm=    0.47719             pdiblc1=      1e-06         
     pdiblc2=  0.0004375             pdiblcb=       0.01 V^-1    
      pscbe1=   1.85e+08 V/m          pscbe2=      1e-06 V/m     
       drout=          0                pvag=          0         
     nfactor=          1                cdsc=          0 f/m^2   
       cdscb=          0 f/V/m^2       cdscd=          0 f/V/m^2 
         cit= 0.00029909 f/m^2        alpha0=          0 m/V     
       beta0=    21.5673 V               dlc=      4e-08 meter   
         dwc=    1.5e-08 meter           clc=      1e-07 meter   
         cle=        0.6                cgso=   3.18e-10 f/m     
        cgdo=   3.18e-10 f/m            cgbo=1.52344e-10 f/m     
        cgsl=          0 f/m            cgdl=          0 f/m     
      ckappa=        0.6                  cf=          0 f/m     
        acde=          1 m/V            moin=         15 V^1/2   
        toxm=    6.8e-09 m            dtoxcv=          0 m       
         vfb (not used)                alpha1=    7.04942 1/V     
        ijth=        0.1 A              noff=          1         
      voffcv=          0                 tcj=0.000992396 1/K     
       tcjsw=0.000501947 1/K          tcjswg=0.000501947 1/K     
         tpb= 0.00168721 V/K           tpbsw= 0.00168721 V/K     
      tpbswg= 0.00168721 V/K             llc=    -0.0165         
         lwc=          0                lwlc=          0         
         wlc=          0                 wwc=          0         
        wwlc=          0                tnom=     298.15 K       
         kt1=  -0.296727 V              kt1l=          0         
         kt2= -0.0300615                 ute=   -1.39147         
         ua1=   2.04e-09 m/V             ub1=-2.34283e-18 (m/V)^2 
         uc1=-2.23054e-11 m/V^2            at=      20000 m/s     
         prt=          0         
         using Berkeley noise model       noiMod=          2         
        noia=      1e+20                noib=      65000         
        noic=     -4e-13                  em=      3e+07         
          ef=      0.951                  af=          1         
          kf=          0              gdsnoi=-1.23457e-29         
         using Berkeley diodes          using ACM 
         acm=        12                 hdif=     2e-07 meter    
        ldif=     9e-08 meter             js=  3.93e-07 amp/m^2  
         jsw=  1.43e-12 amp/m            xti=         3          
          nj=         1                   cj=0.000896479 f/m^2    
          mj=  0.325962                   pb=  0.707602 V        
        cjsw=2.50664e-10 f/m             mjsw=  0.151367          
         php (not used)                  pbsw=  0.707602 V        
      cjgate (not used)                 cjswg=3.00664e-10 f/m      
       mjswg=  0.351367                pbswg=  0.707602 V        
         la0=-1.73347e-08               lketa=-2.63787e-08         
       lvoff=1.55223e-08               lvth0=7.43781e-08         
         lk1=8.77628e-08                 lk2=-3.90764e-08         
       leta0=5.60362e-11               letab=-5.60187e-11         
         lu0=2.49138e-09                 lua=-2.69449e-17         
         lub=2.53764e-26                 luc=1.61272e-17         
       lvsat= -0.0086625               lpclm=2.25818e-07         
    lpdiblc2= 6.1875e-10             lpscbe1=      148.5         
        lcit=2.41886e-10                lkt1=7.27702e-09         
        lkt2= 1.0984e-09                lute= 1.3139e-07         
        lub1=2.02874e-25                luc1=2.36176e-17         
         wa0=5.36884e-08               wketa=-7.21676e-10         
       wvoff=2.19491e-09               wvth0=1.65093e-09         
         wk1= 1.6764e-08                 wk2=1.00485e-10         
       weta0=6.62039e-12               wetab=-6.62039e-12         
         wu0=-2.94233e-09                 wua=-9.8707e-18         
         wub=-3.47258e-25                 wuc=-1.78981e-17         
       wpclm=-5.42692e-09                wcit=-6.07315e-12         
        wkt1=-8.38259e-09                wkt2=-1.16038e-09         
        wute= 9.0155e-08                wub1=-3.01018e-26         
        wuc1=-5.73804e-17                 pa0=-1.00691e-13         
       pketa=7.38758e-16               pvoff=3.39643e-17         
       pvth0=-2.17515e-14                 pk1=-4.75222e-14         
         pk2=1.57964e-14               peta0=-6.55344e-17         
       petab=6.55419e-17                 pu0=-1.20664e-15         
         pua=1.99991e-23                 pub=-1.27131e-31         
         puc=-1.03576e-23               ppclm=5.37257e-14         
        pcit=6.83688e-18                pkt1=8.47207e-15         
        pkt2=1.55924e-15                pute=-7.67843e-14         
        pub1=1.30617e-31                puc1=4.40675e-23         
 ***************************************************************************
 ***        model parameters  model name:   0:nch3.4   model type:nmos   ***
 ***************************************************************************

   *** general parameters ***
    deriv=   0.           

   ***  level 49  model parameters  ***

      hspver=    2006.03               level=         49         
     version=       3.24            paramchk=          0         
      apwarn=          1                lite=          0         
      vgslim=          0             binUnit=          2         
      capMod=          3               xpart=          1         
      mobMod=          1              nqsMod=          0         
      stiMod=          0                 elm=          5         
    sfvtflag=          0                 tox=    6.8e-09 meter   
          xj=    1.7e-07 meter       binflag=          0         
        lmin=    3.5e-07 meter          lmax=      5e-07 meter   
        wmin=      1e-05 meter          wmax=0.000900001 meter   
        lref=          0 meter          wref=          0 meter   
        lint=      4e-08 meter          wint=    1.5e-08 meter   
       lmult=          1               wmult=          1         
          ll=          0                 lln=         -1         
          lw=          0                 lwn=          1         
         lwl=          0                  wl=          0         
         wln=          1                  ww=          0         
         wwn=          1                 wwl=          0         
         dwg=          0 m/V             dwb=          0 m/V^1/2 
          xl=     -2e-08                  xw=          0         
          a0=   0.889567                 ags=      -0.02 V^-1    
          b0=          0 meter            b1=          0 meter   
        keta= -0.0582083 V^-1           voff=  -0.100951 V       
       ngate=          0 cm^-3           vbx=          0 V       
         vbm=         -3 V                xt=   1.55e-07 meter   
        vth0=   0.865634 V               nch=   5.26e+17 cm^-3   
        nsub=      6e+16 cm^-3           nlx=          0 meter   
      gamma1=          0 V^-1/2       gamma2=          0 V^-1/2  
          k1=   0.738036 V^1/2            k2=   0.190555         
          k3=          0                 k3b=          0 V^-1    
          w0=          0 meter          dvt0=          0         
        dvt1=          0                dvt2=          0 V^-1    
       dvt0w=          0 meter^-1      dvt1w=          0 meter^-1
       dvt2w=          0 V^-1           dsub=          0         
        eta0=-0.00116667                etab= 0.00366574 V^-1    
          u0=  0.0426477 m^2/V/sec         ua=-7.67429e-10 m/V     
          ub=2.17083e-18 (m/V)^2          uc= 2.5101e-10 V^-1    
        vsat=    92662.9 m/sec            a1=          0 v^-1    
          a2=       0.99               delta=       0.01 V       
        rdsw=        545 ohm-um         prwg=          0 V^-1    
        prwb=          0 V^-1/2           wr=          1         
        pclm=  -0.142682             pdiblc1=      1e-06         
     pdiblc2= -0.0106611             pdiblcb=       0.01 V^-1    
      pscbe1=    3.5e+08 V/m          pscbe2=      1e-06 V/m     
       drout=          0                pvag=          0         
     nfactor=          1                cdsc=          0 f/m^2   
       cdscb=          0 f/V/m^2       cdscd=          0 f/V/m^2 
         cit=0.000491205 f/m^2        alpha0=          0 m/V     
       beta0=    21.5673 V               dlc=      4e-08 meter   
         dwc=    1.5e-08 meter           clc=      1e-07 meter   
         cle=        0.6                cgso=   3.18e-10 f/m     
        cgdo=   3.18e-10 f/m            cgbo=1.52344e-10 f/m     
        cgsl=          0 f/m            cgdl=          0 f/m     
      ckappa=        0.6                  cf=          0 f/m     
        acde=          1 m/V            moin=         15 V^1/2   
        toxm=    6.8e-09 m            dtoxcv=          0 m       
         vfb (not used)                alpha1=    7.04942 1/V     
        ijth=        0.1 A              noff=          1         
      voffcv=          0                 tcj=0.000992396 1/K     
       tcjsw=0.000501947 1/K          tcjswg=0.000501947 1/K     
         tpb= 0.00168721 V/K           tpbsw= 0.00168721 V/K     
      tpbswg= 0.00168721 V/K             llc=    -0.0165         
         lwc=          0                lwlc=          0         
         wlc=          0                 wwc=          0         
        wwlc=          0                tnom=     298.15 K       
         kt1=  -0.268941 V              kt1l=          0         
         kt2= -0.0179573                 ute=   -1.00527         
         ua1=   2.04e-09 m/V             ub1=-1.60347e-18 (m/V)^2 
         uc1=9.06862e-11 m/V^2            at=      20000 m/s     
         prt=          0         
         using Berkeley noise model       noiMod=          2         
        noia=      1e+20                noib=      65000         
        noic=     -4e-13                  em=      3e+07         
          ef=      0.951                  af=          1         
          kf=          0              gdsnoi=-1.23457e-29         
         using Berkeley diodes          using ACM 
         acm=        12                 hdif=     2e-07 meter    
        ldif=     9e-08 meter             js=  3.93e-07 amp/m^2  
         jsw=  1.43e-12 amp/m            xti=         3          
          nj=         1                   cj=0.000896479 f/m^2    
          mj=  0.325962                   pb=  0.707602 V        
        cjsw=2.50664e-10 f/m             mjsw=  0.151367          
         php (not used)                  pbsw=  0.707602 V        
      cjgate (not used)                 cjswg=3.00664e-10 f/m      
       mjswg=  0.351367                pbswg=  0.707602 V        
         la0=-7.50212e-08               lketa=9.45012e-09         
       lvoff=-3.17914e-09               lvth0=-1.66252e-08         
         lk1=1.04981e-07                 lk2=-9.29037e-08         
       leta0=6.66684e-10               letab=-1.6663e-09         
         lu0=6.45416e-10                 lua=-5.55262e-17         
         lub=1.74525e-25                 luc=-3.60655e-17         
       lvsat=-0.000665177               lpclm=3.44778e-07         
    lpdiblc2=4.66444e-09                lcit= 5.5489e-12         
        lkt1=2.49515e-09                lkt2=-1.93405e-09         
        lute=-2.5967e-08                lub1=1.51722e-25         
        luc1=1.33598e-17               peta0=    7.5e-21         
 

 
  **warning** (./netlist:10) Only 1 connection at node vin_tr+ called in element xtr.m1.

 **warning** the following singular supplies were terminated to 1 meg resistor 
   supply       node1            node2
  vdd_cmrr                0:vcc_cmrr         defined in subckt 0                     0:0                defined in subckt 0               
      
 **info** set option symb=1 internally to help for convergence.
 *****************************************************************
 ******  option summary
 ******
 runlvl  = 3         bypass  = 2         
  Opening plot unit= 15
 file=out.info.pa0                                                             


 **info** rebuilding matrix with pivot option


 **info** rebuilding matrix without pivot option


 **info** dc convergence failure, 
 resetting dcon option to 1 and retrying

 **info** dc convergence successful
 you can increase the efficiency of the
 operating point calculation by setting dcon= 1
 in the .option statement
1****** HSPICE -- D-2010.03 64-BIT (Feb 23 2010) linux ******                   
 ******  
 *netlist

  ******  operating point information tnom=  25.000 temp=  25.000 *****
 ***** operating point status is all       simulation time is   0.000000000e+00
    node    =voltage            node    =voltage

 +0:100     = 0.000000000e+00 0:101     = 1.000000000e+00
 +0:100cmrr = 0.000000000e+00 0:vcc_cmrr= 2.000000000e+00
 +0:vcm_cmrr= 1.000000000e+00 0:vdd_ac  = 2.000000000e+00
 +0:vdd_cmrr=-6.834545929e-01 0:vdd_psr = 2.000000000e+00
 +0:vdd_psra= 2.000000000e+00 0:vdd_sw  = 2.000000000e+00
 +0:vdd_tr  = 2.000000000e+00 0:vin_ac+ = 1.000000000e+00
 +0:vin_ac- = 1.000000000e+00 0:vin_cmrr= 1.000000000e+00
 +0:vin_cmrr=-6.423793688e-01 0:vin_psr+= 1.000000000e+00
 +0:vin_sw  = 1.000000000e+00 0:vin_sw+ = 1.000000000e+00
 +0:vin_sw- = 9.999560808e-01 0:vin_tr+ = 0.000000000e+00
 +0:vo_ac   = 1.561871919e-01 0:vo_cmrr =-6.423793688e-01
 +0:vo_psr  = 9.999560649e-01 0:vo_sw   = 9.995168893e-01
 +0:vo_tr   = 6.548116735e-03 0:vss     = 0.000000000e+00
 +1:bias    = 6.685245820e-01 1:fb      = 7.920676679e-01
 +1:net18   = 7.920676679e-01 1:net6    = 7.920676446e-01
 +1:net9    = 1.979278269e+00 1:net_chec= 0.000000000e+00
 +2:bias    = 6.685245820e-01 2:fb      = 1.040543330e+00
 +2:net18   = 1.040543330e+00 2:net6    = 1.001514677e+00
 +2:net9    = 1.714694667e+00 2:net_chec= 0.000000000e+00
 +3:bias    = 6.685245820e-01 3:fb      = 7.761265331e-01
 +3:net18   = 7.761265331e-01 3:net6    = 7.920841245e-01
 +3:net9    = 1.979275263e+00 3:net_chec= 0.000000000e+00
 +4:bias    = 6.685245820e-01 4:fb      = 7.761207790e-01
 +4:net18   = 7.761207790e-01 4:net6    = 7.920841305e-01
 +4:net9    = 1.979275262e+00 4:net_chec= 0.000000000e+00
 +5:bias    =-2.014930010e+00 5:fb      =-3.350960199e-01
 +5:net18   =-3.350960199e-01 5:net6    =-3.840032109e-01
 +5:net9    =-6.834538820e-01 5:net_chec= 0.000000000e+00


 ****  voltage sources

 subckt                                                                      
 element        0:vin_sw         0:vin_sw+        0:vin_psr+       0:vcm_cmrr
  volts    1.000000000e+00  1.000000000e+00  1.000000000e+00  1.000000000e+00
  current -4.391915774e-11  0.000000000e+00  0.000000000e+00  0.000000000e+00
  power    4.391915774e-11  0.000000000e+00  0.000000000e+00  0.000000000e+00

 subckt                                                                      
 element        0:vs_cmrr        0:vdd_ac         0:vdd_tr         0:vdd_sw  
  volts    0.000000000e+00  2.000000000e+00  2.000000000e+00  2.000000000e+00
  current  0.000000000e+00 -1.500602798e-04 -1.584251640e-04 -1.497530370e-04
  power    0.000000000e+00  3.001205596e-04  3.168503280e-04  2.995060741e-04

 subckt                                                                      
 element        0:vdd_psr        0:vdd_psra       0:vdd_cmrr       0:vss     
  volts    2.000000000e+00  0.000000000e+00  2.000000000e+00  0.000000000e+00
  current -1.497527455e-04 -1.497527455e-04 -2.000000000e-06  6.079912703e-04
  power    2.995054911e-04  0.000000000e+00  4.000000000e-06  0.000000000e+00

 subckt                                     xac              xtr             
 element        0:vcm            0:vs             1:vcheck         2:vcheck  
  volts    1.000000000e+00  0.000000000e+00  0.000000000e+00  0.000000000e+00
  current  0.000000000e+00  0.000000000e+00  0.000000000e+00  0.000000000e+00
  power    0.000000000e+00  0.000000000e+00  0.000000000e+00  0.000000000e+00

 subckt   xsw              xpsr             xcmrr           
 element        3:vcheck         4:vcheck         5:vcheck  
  volts    0.000000000e+00  0.000000000e+00  0.000000000e+00
  current  0.000000000e+00  0.000000000e+00  0.000000000e+00
  power    0.000000000e+00  0.000000000e+00  0.000000000e+00

     total voltage source power dissipation=  1.219982497e-03 watts



 ***** current sources

 subckt   xac              xtr              xsw              xpsr            
 element        1:i0             2:i0             3:i0             4:i0      
  volts    6.685245820e-01  6.685245820e-01  6.685245820e-01  6.685245820e-01
  current  2.210000000e-05  2.210000000e-05  2.210000000e-05  2.210000000e-05
  power   -1.477439326e-05 -1.477439326e-05 -1.477439326e-05 -1.477439326e-05

 subckt   xcmrr           
 element        5:i0      
  volts   -2.014930010e+00
  current  2.210000000e-05
  power    4.452995324e-05


     total current source power dissipation=-1.456761981e-05 watts

 **** resistors

 subckt                                     xac              xtr             
 element        0:rsw10          0:rsw1           1:r0             2:r0      
  r value  1.000000000e+07  1.000000000e+06  7.930000000e+04  7.930000000e+04
  v drop   4.391915774e-04  4.391915774e-05  1.110223025e-16  0.000000000e+00
  current  4.391915774e-11  4.391915774e-11  1.400029035e-21  0.000000000e+00
  power    1.928892416e-14  1.928892416e-15  1.554344470e-37  0.000000000e+00

 subckt   xsw              xpsr             xcmrr           
 element        3:r0             4:r0             5:r0      
  r value  7.930000000e+04  7.930000000e+04  7.930000000e+04
  v drop   0.000000000e+00  0.000000000e+00 -5.551115123e-17
  current  0.000000000e+00  0.000000000e+00 -7.000145174e-22
  power    0.000000000e+00  0.000000000e+00  3.885861174e-38


 **** voltage-controlled voltage sources


 subckt                                                                      
 element        0:e_cmrr+        0:e_cmrr-        0:e+             0:e-      
  volts    0.000000000e+00  0.000000000e+00  0.000000000e+00  0.000000000e+00
  current  0.000000000e+00  0.000000000e+00  0.000000000e+00  0.000000000e+00





 **** mosfets


 subckt   xac              xac              xac              xac             
 element        1:m7             1:m5             1:m3             1:m1      
 model          0:pch3.2         0:pch3.2         0:pch3.6         0:pch3.6  
 region     Saturation       Saturation         Linear         Saturation    
  id      -2.209999732e-05 -1.270199274e-04 -9.401379724e-07 -4.700666297e-07
  ibs      2.661437623e-21  1.529687931e-20  1.146611424e-22  6.449899894e-23
  ibd      1.681640452e-14  1.848352597e-10  9.637088332e-18  3.093811161e-15
  vgs     -1.331475418e+00 -1.331475418e+00 -1.331475418e+00 -9.792782693e-01
  vds     -1.331475418e+00 -1.843812808e+00 -2.072173065e-02 -1.187210601e+00
  vbs      0.000000000e+00  0.000000000e+00  0.000000000e+00  0.000000000e+00
  vth     -6.997230839e-01 -6.986578020e-01 -6.988575353e-01 -6.954268135e-01
  vdsat   -4.845675441e-01 -4.830882260e-01 -4.828051833e-01 -2.337688027e-01
  vod     -6.317523341e-01 -6.328176161e-01 -6.326178827e-01 -2.838514559e-01
  beta     1.441254788e-04  8.293602728e-04  7.524577612e-05  1.418694297e-05
  gam eff  7.185394720e-01  7.159429932e-01  7.162682475e-01  7.191448832e-01
  gm       6.326078696e-05  3.635496118e-04  1.372327526e-06  2.988409646e-06
  gds      8.264987102e-08  2.388252807e-07  4.435871649e-05  1.264523575e-09
  gmb      3.436046619e-05  1.973848388e-04  9.036996073e-07  1.585884194e-06
  cdtot    1.027239386e-14  7.801518559e-14  2.104088221e-13  2.139846622e-15
  cgtot    1.450802638e-13  1.602408463e-12  1.836343296e-13  5.657980725e-14
  cstot    1.896499821e-13  2.086865182e-12  2.119527493e-13  7.211245357e-14
  cbtot    8.459576093e-14  8.921042807e-13  9.755164482e-14  3.317587907e-14
  cgs      1.347436233e-13  1.494785361e-12  1.037286243e-13  5.022117192e-14
  cgd      3.054896359e-15  2.421846374e-14  8.826785116e-14  5.834979977e-16



 subckt   xac              xac              xac              xac             
 element        1:m0             1:m4             1:m2             1:m6      
 model          0:pch3.6         0:nch3.6         0:nch3.6         0:nch3.4  
 region     Saturation       Saturation       Saturation         Cutoff      
  id      -4.700666297e-07  4.700674228e-07  4.700674230e-07  1.270201414e-04
  ibs      6.449899894e-23 -8.637300394e-23 -8.637300397e-23 -2.036335174e-20
  ibd      3.093812500e-15 -8.855929274e-18 -8.855929387e-18 -3.023168968e-16
  vgs     -9.792782693e-01  7.920676446e-01  7.920676446e-01  7.920676679e-01
  vds     -1.187210624e+00  7.920676446e-01  7.920676679e-01  1.561871919e-01
  vbs      0.000000000e+00  0.000000000e+00  0.000000000e+00  0.000000000e+00
  vth     -6.954268134e-01  7.544749080e-01  7.544749080e-01  7.984310176e-01
  vdsat   -2.337688027e-01  9.073882874e-02  9.073882875e-02  6.710816762e-02
  vod     -2.838514559e-01  3.759273667e-02  3.759273668e-02 -6.363349673e-03
  beta     1.418694297e-05  1.611613033e-04  1.611613033e-04  9.899051721e-02
  gam eff  7.191448832e-01  8.209146984e-01  8.209146984e-01  1.502049234e+00
  gm       2.988409646e-06  7.410399116e-06  7.410399118e-06  2.244512277e-03
  gds      1.264523553e-09  6.941571995e-09  6.941571934e-09  1.102224204e-04
  gmb      1.585884194e-06  3.543602475e-06  3.543602476e-06  9.438902904e-04
  cdtot    2.139846616e-15  2.826562673e-15  2.826562665e-15  1.183440623e-13
  cgtot    5.657980725e-14  2.562666664e-14  2.562666664e-14  1.330651684e-13
  cstot    7.211245357e-14  2.927743563e-14  2.927743563e-14  1.738463547e-13
  cbtot    3.317587906e-14  2.040647104e-14  2.040647103e-14  2.295696717e-13
  cgs      5.022117192e-14  1.748413835e-14  1.748413835e-14  6.468518281e-14
  cgd      5.834979973e-16  7.908726244e-16  7.908726243e-16  3.183187426e-14



 subckt   xtr              xtr              xtr              xtr             
 element        2:m7             2:m5             2:m3             2:m1      
 model          0:pch3.2         0:pch3.2         0:pch3.6         0:pch3.6  
 region     Saturation       Saturation         Linear           Linear      
  id      -2.209999732e-05 -1.270552303e-04 -9.269243990e-06 -4.635283562e-06
  ibs      2.661437623e-21  1.530113077e-20  1.130462909e-21  6.359826203e-22
  ibd      1.681640452e-14  6.572749154e-10  1.740776763e-17  5.263456479e-18
  vgs     -1.331475418e+00 -1.331475418e+00 -1.331475418e+00 -1.714694667e+00
  vds     -1.331475418e+00 -1.993451883e+00 -2.853053322e-01 -6.741513369e-01
  vbs      0.000000000e+00  0.000000000e+00  0.000000000e+00  0.000000000e+00
  vth     -6.997230839e-01 -6.986273400e-01 -6.988044574e-01 -6.955327185e-01
  vdsat   -4.845675441e-01 -4.831097524e-01 -4.828417276e-01 -7.503122471e-01
  vod     -6.317523341e-01 -6.328480781e-01 -6.326709606e-01 -1.019161949e+00
  beta     1.441254788e-04  8.293647655e-04  7.524650205e-05  1.251342708e-05
  gam eff  7.185394720e-01  7.159429932e-01  7.162681329e-01  7.191446713e-01
  gm       6.326078696e-05  3.636359754e-04  1.907733794e-05  7.267830975e-06
  gds      8.264987102e-08  2.356023472e-07  1.869325201e-05  1.474854376e-06
  gmb      3.436046619e-05  1.974295858e-04  1.125341312e-05  4.164737436e-06
  cdtot    1.027239386e-14  7.702540205e-14  9.766944197e-14  1.080333528e-14
  cgtot    1.450802638e-13  1.602366654e-12  1.677793353e-13  6.134007453e-14
  cstot    1.896499821e-13  2.086893596e-12  1.941646850e-13  7.521164806e-14
  cbtot    8.459576093e-14  8.911751545e-13  8.917803077e-14  3.200592515e-14
  cgs      1.347436233e-13  1.494749143e-12  1.291540553e-13  5.500709744e-14
  cgd      3.054896359e-15  2.418865862e-14  4.027130931e-14  4.262697376e-15



 subckt   xtr              xtr              xtr              xtr             
 element        2:m0             2:m4             2:m2             2:m6      
 model          0:pch3.6         0:nch3.6         0:nch3.6         0:nch3.4  
 region       Linear         Saturation       Saturation         Linear      
  id      -4.633958225e-06  4.633957648e-06  4.635282830e-06  1.270559194e-04
  ibs      6.358007942e-22 -8.514326482e-22 -8.516761293e-22 -2.036908730e-20
  ibd      5.263474865e-18 -2.638599137e-17 -7.982678803e-17 -6.812422678e-17
  vgs     -1.708146551e+00  1.001514677e+00  1.001514677e+00  1.040543330e+00
  vds     -7.131799907e-01  1.001514677e+00  1.040543330e+00  6.548116735e-03
  vbs      0.000000000e+00  0.000000000e+00  0.000000000e+00  0.000000000e+00
  vth     -6.955247729e-01  7.544328404e-01  7.544247992e-01  7.991044275e-01
  vdsat   -7.457115767e-01  2.338798647e-01  2.338859879e-01  1.948822486e-01
  vod     -1.012621778e+00  2.470818367e-01  2.470898779e-01  2.414389034e-01
  beta     1.252671798e-05  1.592486323e-04  1.592487280e-04  9.747893670e-02
  gam eff  7.191446714e-01  8.209146375e-01  8.209146375e-01  1.502049234e+00
  gm       7.591495245e-06  3.311019982e-05  3.311740038e-05  4.795797232e-04
  gds      9.717621018e-07  3.439512884e-08  3.353641393e-08  1.905293223e-02
  gmb      4.291121052e-06  1.566105815e-05  1.566440882e-05  2.081347744e-04
  cdtot    7.991365224e-15  2.764454779e-15  2.751327951e-15  2.737511101e-13
  cgtot    6.057041929e-14  3.132532075e-14  3.132419110e-14  1.844735688e-13
  cstot    7.508564679e-14  4.087250789e-14  4.087333330e-14  2.601468489e-13
  cbtot    3.182503298e-14  2.108574303e-14  2.107370357e-14  2.477520404e-13
  cgs      5.514616695e-14  2.612992233e-14  2.612886117e-14  8.529404266e-14
  cgd      3.053162995e-15  7.934353475e-16  7.928171780e-16  8.482866827e-14



 subckt   xsw              xsw              xsw              xsw             
 element        3:m7             3:m5             3:m3             3:m1      
 model          0:pch3.2         0:pch3.2         0:pch3.6         0:pch3.6  
 region     Saturation       Saturation         Linear         Saturation    
  id      -2.209999732e-05 -1.267127497e-04 -9.402713049e-07 -4.700776799e-07
  ibs      2.661437623e-21  1.525988689e-20  1.146774043e-22  6.450051736e-23
  ibd      1.681640452e-14  1.895815098e-16  9.637997436e-18  4.142115287e-15
  vgs     -1.331475418e+00 -1.331475418e+00 -1.331475418e+00 -9.792752635e-01
  vds     -1.331475418e+00 -1.000483110e+00 -2.072473649e-02 -1.203148730e+00
  vbs      0.000000000e+00  0.000000000e+00  0.000000000e+00  0.000000000e+00
  vth     -6.997230839e-01 -6.988294776e-01 -6.988575347e-01 -6.954235689e-01
  vdsat   -4.845675441e-01 -4.829669101e-01 -4.828051837e-01 -2.337689698e-01
  vod     -6.317523341e-01 -6.326459404e-01 -6.326178833e-01 -2.838516946e-01
  beta     1.441254788e-04  8.293349533e-04  7.524577613e-05  1.418695890e-05
  gam eff  7.185394720e-01  7.159429936e-01  7.162682475e-01  7.191448832e-01
  gm       6.326078696e-05  3.624650846e-04  1.372526796e-06  2.988487471e-06
  gds      8.264987102e-08  6.634465351e-07  4.435842301e-05  1.249455296e-09
  gmb      3.436046619e-05  1.968403470e-04  9.038297344e-07  1.585924150e-06
  cdtot    1.027239386e-14  8.783979516e-14  2.104080779e-13  2.135441583e-15
  cgtot    1.450802638e-13  1.603750952e-12  1.836342950e-13  5.657934983e-14
  cstot    1.896499821e-13  2.086282422e-12  2.119525711e-13  7.211279418e-14
  cbtot    8.459576093e-14  8.993911409e-13  9.755156939e-14  3.317192405e-14
  cgs      1.347436233e-13  1.495490114e-12  1.037288916e-13  5.022070714e-14
  cgd      3.054896359e-15  2.546817537e-14  8.826753620e-14  5.832550568e-16



 subckt   xsw              xsw              xsw              xsw             
 element        3:m0             3:m4             3:m2             3:m6      
 model          0:pch3.6         0:nch3.6         0:nch3.6         0:nch3.4  
 region     Saturation       Saturation       Saturation         Cutoff      
  id      -4.701888781e-07  4.701896713e-07  4.700785382e-07  1.267128075e-04
  ibs      6.451577281e-23 -8.639546647e-23 -8.637504342e-23 -2.031408300e-20
  ibd      3.091861196e-15 -8.855997582e-18 -8.799437548e-18 -8.466816496e-14
  vgs     -9.793191827e-01  7.920841245e-01  7.920841245e-01  7.761265331e-01
  vds     -1.187191139e+00  7.920841245e-01  7.761265331e-01  9.995168893e-01
  vbs      0.000000000e+00  0.000000000e+00  0.000000000e+00  0.000000000e+00
  vth     -6.954268175e-01  7.544749046e-01  7.544781925e-01  7.946358414e-01
  vdsat   -2.337974929e-01  9.074723569e-02  9.074555891e-02  6.320071758e-02
  vod     -2.838923652e-01  3.760921987e-02  3.760593197e-02 -1.850930835e-02
  beta     1.418683844e-05  1.611612065e-04  1.611611663e-04  9.906887661e-02
  gam eff  7.191448832e-01  8.209146984e-01  8.209146984e-01  1.502049233e+00
  gm       2.988785221e-06  7.411932006e-06  7.410575788e-06  2.284788861e-03
  gds      1.264815695e-09  6.942922541e-09  6.986241859e-09  2.917324320e-05
  gmb      1.586088424e-06  3.544330987e-06  3.543685666e-06  9.441999180e-04
  cdtot    2.139854830e-15  2.826557267e-15  2.832588142e-15  1.028808481e-13
  cgtot    5.658012041e-14  2.562808481e-14  2.562816430e-14  1.291121263e-13
  cstot    7.211287152e-14  2.928060297e-14  2.927965178e-14  1.654704075e-13
  cbtot    3.317576862e-14  2.040677649e-14  2.041262705e-14  2.135756273e-13
  cgs      5.022173380e-14  1.748626865e-14  1.748631263e-14  5.884575299e-14
  cgd      5.834994478e-16  7.908726105e-16  7.909576028e-16  3.170641375e-14



 subckt   xpsr             xpsr             xpsr             xpsr            
 element        4:m7             4:m5             4:m3             4:m1      
 model          0:pch3.2         0:pch3.2         0:pch3.6         0:pch3.6  
 region     Saturation       Saturation         Linear         Saturation    
  id      -2.209999732e-05 -1.267124582e-04 -9.402713524e-07 -4.700776839e-07
  ibs      2.661437623e-21  1.525985179e-20  1.146774099e-22  6.450051791e-23
  ibd      1.681640452e-14  1.895688739e-16  9.637997760e-18  4.142544760e-15
  vgs     -1.331475418e+00 -1.331475418e+00 -1.331475418e+00 -9.792752624e-01
  vds     -1.331475418e+00 -1.000043935e+00 -2.072473756e-02 -1.203154483e+00
  vbs      0.000000000e+00  0.000000000e+00  0.000000000e+00  0.000000000e+00
  vth     -6.997230839e-01 -6.988295670e-01 -6.988575347e-01 -6.954235677e-01
  vdsat   -4.845675441e-01 -4.829668469e-01 -4.828051837e-01 -2.337689699e-01
  vod     -6.317523341e-01 -6.326458510e-01 -6.326178833e-01 -2.838516947e-01
  beta     1.441254788e-04  8.293349401e-04  7.524577613e-05  1.418695890e-05
  gam eff  7.185394720e-01  7.159429936e-01  7.162682475e-01  7.191448832e-01
  gm       6.326078696e-05  3.624637903e-04  1.372526867e-06  2.988487499e-06
  gds      8.264987102e-08  6.641767741e-07  4.435842290e-05  1.249449986e-09
  gmb      3.436046619e-05  1.968397026e-04  9.038297808e-07  1.585924164e-06
  cdtot    1.027239386e-14  8.785062807e-14  2.104080777e-13  2.135440006e-15
  cgtot    1.450802638e-13  1.603753487e-12  1.836342950e-13  5.657934967e-14
  cstot    1.896499821e-13  2.086281576e-12  2.119525710e-13  7.211279430e-14
  cbtot    8.459576093e-14  8.993965416e-13  9.755156937e-14  3.317192263e-14
  cgs      1.347436233e-13  1.495491118e-12  1.037288917e-13  5.022070698e-14
  cgd      3.054896359e-15  2.547081477e-14  8.826753609e-14  5.832549716e-16



 subckt   xpsr             xpsr             xpsr             xpsr            
 element        4:m0             4:m4             4:m2             4:m6      
 model          0:pch3.6         0:nch3.6         0:nch3.6         0:nch3.4  
 region     Saturation       Saturation       Saturation         Cutoff      
  id      -4.701889226e-07  4.701897156e-07  4.700785423e-07  1.267124721e-04
  ibs      6.451577886e-23 -8.639547461e-23 -8.637504416e-23 -2.031402922e-20
  ibd      3.091860489e-15 -8.855997607e-18 -8.799423424e-18 -8.562442550e-14
  vgs     -9.793191975e-01  7.920841305e-01  7.920841305e-01  7.761207790e-01
  vds     -1.187191132e+00  7.920841305e-01  7.761207790e-01  9.999560649e-01
  vbs      0.000000000e+00  0.000000000e+00  0.000000000e+00  0.000000000e+00
  vth     -6.954268175e-01  7.544749046e-01  7.544781937e-01  7.946338650e-01
  vdsat   -2.337975033e-01  9.074723873e-02  9.074556136e-02  6.319956378e-02
  vod     -2.838923801e-01  3.760922585e-02  3.760593676e-02 -1.851308606e-02
  beta     1.418683840e-05  1.611612064e-04  1.611611662e-04  9.906890954e-02
  gam eff  7.191448832e-01  8.209146984e-01  8.209146984e-01  1.502049233e+00
  gm       2.988785357e-06  7.411932562e-06  7.410575852e-06  2.284777732e-03
  gds      1.264815801e-09  6.942923031e-09  6.986258572e-09  2.916965712e-05
  gmb      1.586088499e-06  3.544331251e-06  3.543685696e-06  9.441865631e-04
  cdtot    2.139854833e-15  2.826557265e-15  2.832590334e-15  1.028757348e-13
  cgtot    5.658012052e-14  2.562808532e-14  2.562816485e-14  1.291110190e-13
  cstot    7.211287167e-14  2.928060412e-14  2.927965258e-14  1.654677815e-13
  cbtot    3.317576858e-14  2.040677660e-14  2.041262929e-14  2.135702597e-13
  cgs      5.022173401e-14  1.748626942e-14  1.748631342e-14  5.884403193e-14
  cgd      5.834994483e-16  7.908726105e-16  7.909576347e-16  3.170641813e-14



 subckt   xcmrr            xcmrr            xcmrr            xcmrr           
 element        5:m7             5:m5             5:m3             5:m1      
 model          0:pch3.2         0:pch3.2         0:pch3.6         0:pch3.6  
 region     Saturation         Linear           Linear           Cutoff      
  id      -2.209999732e-05  2.209996636e-05  3.297016735e-11  5.458795250e-28
  ibs      2.661437623e-21 -2.657086055e-21 -4.021168590e-27 -4.778619704e-29
  ibd      1.681640452e-14 -7.463019544e-16 -4.816511306e-22 -4.072872577e-12
  vgs     -1.331475418e+00 -1.331475418e+00 -1.331475418e+00  1.683453882e+00
  vds     -1.331475418e+00  4.107522411e-02  7.108477862e-07  3.483578621e-01
  vbs      0.000000000e+00  0.000000000e+00  0.000000000e+00  0.000000000e+00
  vth     -6.997230839e-01 -6.779784528e-01 -6.988612936e-01 -5.388360477e-01
  vdsat   -4.845675441e-01 -5.236017981e-01 -4.828030879e-01 -3.411711076e-02
  vod     -6.317523341e-01 -6.534969653e-01 -6.326141244e-01  2.222289929e+00
  beta     1.441254788e-04  8.270556922e-04  7.524571560e-05  1.596368258e-05
  gam eff  7.185394720e-01  7.190129398e-01  7.162683147e-01  7.413131525e-01
  gm       6.326078696e-05  2.955849514e-05  4.702841571e-11  1.336399841e-26
  gds      8.264987102e-08  5.157458009e-04  4.638221269e-05  7.863484015e-30
  gmb      3.436046619e-05  1.902186957e-05  3.122806828e-11  8.655088544e-27
  cdtot    1.027239386e-14  2.316277268e-12  2.131583257e-13  2.918716954e-15
  cgtot    1.450802638e-13  2.023051361e-12  1.838310102e-13  7.530245775e-14
  cstot    1.896499821e-13  2.294235730e-12  2.153379107e-13  2.636906232e-15
  cbtot    8.459576093e-14  1.017810315e-12  9.806747644e-14  4.360270375e-14
  cgs      1.347436233e-13  9.568505874e-13  9.035272156e-14  5.844700000e-16
  cgd      3.054896359e-15  1.173209212e-12  1.019124328e-13  3.550196719e-14



 subckt   xcmrr            xcmrr            xcmrr            xcmrr           
 element        5:m0             5:m4             5:m2             5:m6      
 model          0:pch3.6         0:nch3.6         0:nch3.6         0:nch3.4  
 region       Cutoff           Cutoff           Cutoff           Cutoff      
  id       2.699392237e-11 -3.261871568e-13 -5.997499533e-14 -2.217541541e-07
  ibs     -1.980669027e-27 -1.233337934e-27 -1.427137251e-28 -1.586822165e-21
  ibd     -6.069757559e-13  2.710562377e-11  4.039543902e-12  2.187821159e-05
  vgs      4.107451326e-02 -3.840032109e-01 -3.840032109e-01 -3.350960199e-01
  vds      2.994506711e-01 -3.840032109e-01 -3.350960199e-01 -6.423793688e-01
  vbs      0.000000000e+00  0.000000000e+00  0.000000000e+00  0.000000000e+00
  vth     -5.582171508e-01  5.997197376e-01  6.165607568e-01  6.266279974e-01
  vdsat   -3.442218925e-02  3.903522164e-02  3.924022279e-02  3.745357229e-02
  vod      5.992916641e-01 -9.837229485e-01 -1.000563967e+00 -9.617240173e-01
  beta     1.583141203e-05  1.623118558e-04  1.623150054e-04  9.900089102e-02
  gam eff  7.386448820e-01  8.295007892e-01  8.285784156e-01  1.411762721e+00
  gm       6.462189185e-10  7.934633589e-12  1.470602939e-12  4.980445035e-06
  gds      4.969248502e-13  1.025845589e-14  2.085528454e-15  5.332617944e-08
  gmb      2.799053304e-10  3.206042442e-12  6.308691271e-13  8.664605853e-07
  cdtot    2.916282835e-15  3.655446274e-15  3.608108579e-15  1.467116492e-13
  cgtot    2.982922817e-14  2.038170049e-14  2.064208582e-14  1.222271726e-13
  cstot    2.636941098e-15  3.283848398e-15  3.283848393e-15  1.229814516e-13
  cbtot    2.110638383e-14  1.486781355e-14  1.568427619e-14  2.260965475e-13
  cgs      5.844815640e-16  7.918200031e-16  7.918200014e-16  3.179045872e-14
  cgd      1.249712457e-14  1.007771104e-14  9.474304709e-15  7.040401312e-14



 ******  
 *netlist

  ******  ac analysis tnom=  25.000 temp=  25.000 *****
   gain=  7.7379E+01    at=  1.0233E+00
               from=  1.0000E+00    to=  5.0000E+10
   ugf=  1.0378E+07
   phase= -1.0769E+02    at=  1.0378E+07
               from=  1.0000E+00    to=  1.0378E+07
   pm=  7.2310E+01

          ***** job concluded
1****** HSPICE -- D-2010.03 64-BIT (Feb 23 2010) linux ******                   
 ******  
 *netlist

  ******  job statistics summary tnom=  25.000 temp=  25.000 *****
 
 
 ******  Machine Information  ******
 CPU:
 model name	: Intel(R) Xeon(R) CPU E7- 8837  @ 2.67GHz
 cpu MHz	: 1064.000
 
 OS:
 Linux version 2.6.32-220.el6.x86_64 (mockbuild@x86-004.build.bos.redhat.com) (g
 cc version 4.4.5 20110214 (Red Hat 4.4.5-6) (GCC) ) #1 SMP Wed Nov 9 08:03:13 E
 ST 2011


  ******  HSPICE Threads Information  ******

  Command Line Threads Count                  :     1
  Available CPU Count                         :    64
  Actual Model Evaluation(Load) Threads Count :     1
  Actual Solver Threads Count                 :     1


  ******  Circuit Statistics  ******
  # nodes       =     137 # elements   =      86
  # resistors   =       8 # capacitors =      10 # inductors   =       0
  # mutual_inds =       0 # vccs       =       0 # vcvs        =       4
  # cccs        =       0 # ccvs       =       0 # volt_srcs   =      19
  # curr_srcs   =       5 # diodes     =       0 # bjts        =       0
  # jfets       =       0 # mosfets    =      40 # U elements  =       0
  # T elements  =       0 # W elements =       0 # B elements  =       0
  # S elements  =       0 # P elements =       0 # va device   =       0


  ******  Runtime Statistics (seconds)  ******

  analysis           time    # points   tot. iter  conv.iter
  op point           0.04           1         252
  ac analysis        0.04        1071        1071
  readin             0.03
  errchk             0.01
  setup              0.00
  output             0.00


           total memory used                738 kbytes
           total cpu time            0.12 seconds
           total elapsed time        0.59 seconds
           job started at     22:27:40 11/16/2017
           job ended   at     22:27:40 11/16/2017


 lic: Release hspice token(s) 
